107970
  -OEChem-05242006102D

 55 55  0     0  0  0  0  0  0999 V2000
    4.8301    5.4610    0.0000 O   0  0  0  0  0  0  0  0  0  0  0  0
    7.8301    3.7290    0.0000 O   0  0  0  0  0  0  0  0  0  0  0  0
    6.3301    5.5950    0.0000 N   0  0  0  0  0  0  0  0  0  0  0  0
    6.3301    4.5950    0.0000 C   0  0  0  0  0  0  0  0  0  0  0  0
    6.3301    3.5950    0.0000 C   0  0  0  0  0  0  0  0  0  0  0  0
    5.4641    3.0950    0.0000 C   0  0  0  0  0  0  0  0  0  0  0  0
    5.3301    4.5950    0.0000 C   0  0  0  0  0  0  0  0  0  0  0  0
    7.3301    4.5950    0.0000 C   0  0  0  0  0  0  0  0  0  0  0  0
    4.5981   -2.4050    0.0000 C   0  0  0  0  0  0  0  0  0  0  0  0
    4.5981   -1.4050    0.0000 C   0  0  0  0  0  0  0  0  0  0  0  0
    3.7320   -2.9050    0.0000 C   0  0  0  0  0  0  0  0  0  0  0  0
    5.4641    2.0950    0.0000 C   0  0  0  0  0  0  0  0  0  0  0  0
    5.4641   -0.9050    0.0000 C   0  0  0  0  0  0  0  0  0  0  0  0
    3.7320   -3.9050    0.0000 C   0  0  0  0  0  0  0  0  0  0  0  0
    5.4641    0.0950    0.0000 C   0  0  0  0  0  0  0  0  0  0  0  0
    2.8660   -4.4050    0.0000 C   0  0  0  0  0  0  0  0  0  0  0  0
    4.5981    1.5950    0.0000 C   0  0  0  0  0  0  0  0  0  0  0  0
    6.3301    1.5950    0.0000 C   0  0  0  0  0  0  0  0  0  0  0  0
    4.5981    0.5950    0.0000 C   0  0  0  0  0  0  0  0  0  0  0  0
    6.3301    0.5950    0.0000 C   0  0  0  0  0  0  0  0  0  0  0  0
    2.8660   -5.4050    0.0000 C   0  0  0  0  0  0  0  0  0  0  0  0
    2.0000   -5.9050    0.0000 C   0  0  0  0  0  0  0  0  0  0  0  0
    6.5422    3.0124    0.0000 H   0  0  0  0  0  0  0  0  0  0  0  0
    6.9407    3.7027    0.0000 H   0  0  0  0  0  0  0  0  0  0  0  0
    5.2520    3.6776    0.0000 H   0  0  0  0  0  0  0  0  0  0  0  0
    4.8535    2.9873    0.0000 H   0  0  0  0  0  0  0  0  0  0  0  0
    4.7475    4.3830    0.0000 H   0  0  0  0  0  0  0  0  0  0  0  0
    5.4378    3.9844    0.0000 H   0  0  0  0  0  0  0  0  0  0  0  0
    7.9127    4.8070    0.0000 H   0  0  0  0  0  0  0  0  0  0  0  0
    7.2225    5.2056    0.0000 H   0  0  0  0  0  0  0  0  0  0  0  0
    4.8101   -2.9876    0.0000 H   0  0  0  0  0  0  0  0  0  0  0  0
    5.2087   -2.2973    0.0000 H   0  0  0  0  0  0  0  0  0  0  0  0
    4.3860   -0.8224    0.0000 H   0  0  0  0  0  0  0  0  0  0  0  0
    3.9875   -1.5127    0.0000 H   0  0  0  0  0  0  0  0  0  0  0  0
    3.5200   -2.3224    0.0000 H   0  0  0  0  0  0  0  0  0  0  0  0
    3.1215   -3.0127    0.0000 H   0  0  0  0  0  0  0  0  0  0  0  0
    5.6762   -1.4876    0.0000 H   0  0  0  0  0  0  0  0  0  0  0  0
    6.0747   -0.7973    0.0000 H   0  0  0  0  0  0  0  0  0  0  0  0
    3.9441   -4.4876    0.0000 H   0  0  0  0  0  0  0  0  0  0  0  0
    4.3426   -3.7973    0.0000 H   0  0  0  0  0  0  0  0  0  0  0  0
    6.8671    5.9050    0.0000 H   0  0  0  0  0  0  0  0  0  0  0  0
    5.7932    5.9050    0.0000 H   0  0  0  0  0  0  0  0  0  0  0  0
    2.6540   -3.8224    0.0000 H   0  0  0  0  0  0  0  0  0  0  0  0
    2.2554   -4.5127    0.0000 H   0  0  0  0  0  0  0  0  0  0  0  0
    4.0611    1.9050    0.0000 H   0  0  0  0  0  0  0  0  0  0  0  0
    6.8671    1.9050    0.0000 H   0  0  0  0  0  0  0  0  0  0  0  0
    4.0611    0.2850    0.0000 H   0  0  0  0  0  0  0  0  0  0  0  0
    6.8671    0.2850    0.0000 H   0  0  0  0  0  0  0  0  0  0  0  0
    3.0781   -5.9876    0.0000 H   0  0  0  0  0  0  0  0  0  0  0  0
    3.4766   -5.2973    0.0000 H   0  0  0  0  0  0  0  0  0  0  0  0
    4.2101    5.4610    0.0000 H   0  0  0  0  0  0  0  0  0  0  0  0
    8.4501    3.7290    0.0000 H   0  0  0  0  0  0  0  0  0  0  0  0
    1.6900   -5.3681    0.0000 H   0  0  0  0  0  0  0  0  0  0  0  0
    1.4631   -6.2150    0.0000 H   0  0  0  0  0  0  0  0  0  0  0  0
    2.3100   -6.4419    0.0000 H   0  0  0  0  0  0  0  0  0  0  0  0
  1  7  1  0  0  0  0
  1 51  1  0  0  0  0
  2  8  1  0  0  0  0
  2 52  1  0  0  0  0
  3  4  1  0  0  0  0
  3 41  1  0  0  0  0
  3 42  1  0  0  0  0
  4  5  1  0  0  0  0
  4  7  1  0  0  0  0
  4  8  1  0  0  0  0
  5  6  1  0  0  0  0
  5 23  1  0  0  0  0
  5 24  1  0  0  0  0
  6 12  1  0  0  0  0
  6 25  1  0  0  0  0
  6 26  1  0  0  0  0
  7 27  1  0  0  0  0
  7 28  1  0  0  0  0
  8 29  1  0  0  0  0
  8 30  1  0  0  0  0
  9 10  1  0  0  0  0
  9 11  1  0  0  0  0
  9 31  1  0  0  0  0
  9 32  1  0  0  0  0
 10 13  1  0  0  0  0
 10 33  1  0  0  0  0
 10 34  1  0  0  0  0
 11 14  1  0  0  0  0
 11 35  1  0  0  0  0
 11 36  1  0  0  0  0
 12 17  2  0  0  0  0
 12 18  1  0  0  0  0
 13 15  1  0  0  0  0
 13 37  1  0  0  0  0
 13 38  1  0  0  0  0
 14 16  1  0  0  0  0
 14 39  1  0  0  0  0
 14 40  1  0  0  0  0
 15 19  2  0  0  0  0
 15 20  1  0  0  0  0
 16 21  1  0  0  0  0
 16 43  1  0  0  0  0
 16 44  1  0  0  0  0
 17 19  1  0  0  0  0
 17 45  1  0  0  0  0
 18 20  2  0  0  0  0
 18 46  1  0  0  0  0
 19 47  1  0  0  0  0
 20 48  1  0  0  0  0
 21 22  1  0  0  0  0
 21 49  1  0  0  0  0
 21 50  1  0  0  0  0
 22 53  1  0  0  0  0
 22 54  1  0  0  0  0
 22 55  1  0  0  0  0
M  END
> <PUBCHEM_COMPOUND_CID>
107970

> <PUBCHEM_COMPOUND_CANONICALIZED>
1

> <PUBCHEM_CACTVS_COMPLEXITY>
258

> <PUBCHEM_CACTVS_HBOND_ACCEPTOR>
3

> <PUBCHEM_CACTVS_HBOND_DONOR>
3

> <PUBCHEM_CACTVS_ROTATABLE_BOND>
12

> <PUBCHEM_CACTVS_SUBSKEYS>
AAADcfB6MAAAAAAAAAAAAAAAAAAAAAAAAAAwAAAAAAAAAAABAAAAHgAQCAAADIihmAIyAIBAAgCAAiBCAAACAAAgAAAIiAAAAIgKMCKAkRCAYAAlkAAIiAeQwPAOQAAAAAAAAACAAAAAAAAAAAAAAAAAAA==

> <PUBCHEM_IUPAC_OPENEYE_NAME>
2-amino-2-[2-(4-octylphenyl)ethyl]propane-1,3-diol

> <PUBCHEM_IUPAC_CAS_NAME>
2-amino-2-[2-(4-octylphenyl)ethyl]propane-1,3-diol

> <PUBCHEM_IUPAC_NAME_MARKUP>
2-amino-2-[2-(4-octylphenyl)ethyl]propane-1,3-diol

> <PUBCHEM_IUPAC_NAME>
2-amino-2-[2-(4-octylphenyl)ethyl]propane-1,3-diol

> <PUBCHEM_IUPAC_SYSTEMATIC_NAME>
2-azanyl-2-[2-(4-octylphenyl)ethyl]propane-1,3-diol

> <PUBCHEM_IUPAC_TRADITIONAL_NAME>
2-amino-2-[2-(4-octylphenyl)ethyl]propane-1,3-diol

> <PUBCHEM_IUPAC_INCHI>
InChI=1S/C19H33NO2/c1-2-3-4-5-6-7-8-17-9-11-18(12-10-17)13-14-19(20,15-21)16-22/h9-12,21-22H,2-8,13-16,20H2,1H3

> <PUBCHEM_IUPAC_INCHIKEY>
KKGQTZUTZRNORY-UHFFFAOYSA-N

> <PUBCHEM_XLOGP3_AA>
4.2

> <PUBCHEM_EXACT_MASS>
307.251129

> <PUBCHEM_MOLECULAR_FORMULA>
C19H33NO2

> <PUBCHEM_MOLECULAR_WEIGHT>
307.5

> <PUBCHEM_OPENEYE_CAN_SMILES>
CCCCCCCCC1=CC=C(C=C1)CCC(CO)(CO)N

> <PUBCHEM_OPENEYE_ISO_SMILES>
CCCCCCCCC1=CC=C(C=C1)CCC(CO)(CO)N

> <PUBCHEM_CACTVS_TPSA>
66.5

> <PUBCHEM_MONOISOTOPIC_WEIGHT>
307.251129

> <PUBCHEM_TOTAL_CHARGE>
0

> <PUBCHEM_HEAVY_ATOM_COUNT>
22

> <PUBCHEM_ATOM_DEF_STEREO_COUNT>
0

> <PUBCHEM_ATOM_UDEF_STEREO_COUNT>
0

> <PUBCHEM_BOND_DEF_STEREO_COUNT>
0

> <PUBCHEM_BOND_UDEF_STEREO_COUNT>
0

> <PUBCHEM_ISOTOPIC_ATOM_COUNT>
0

> <PUBCHEM_COMPONENT_COUNT>
1

> <PUBCHEM_CACTVS_TAUTO_COUNT>
-1

> <PUBCHEM_COORDINATE_TYPE>
1
5
255

> <PUBCHEM_BONDANNOTATIONS>
12  17  8
12  18  8
15  19  8
15  20  8
17  19  8
18  20  8

$$$$
