1086839
  -OEChem-05242006122D

 31 32  0     1  0  0  0  0  0999 V2000
    5.0780    3.1284    0.0000 O   0  0  0  0  0  0  0  0  0  0  0  0
    5.1350    1.0406    0.0000 O   0  0  0  0  0  0  0  0  0  0  0  0
    4.2690   -3.4594    0.0000 O   0  0  0  0  0  0  0  0  0  0  0  0
    3.4030    1.0406    0.0000 N   0  0  0  0  0  0  0  0  0  0  0  0
    2.5369   -3.4594    0.0000 N   0  0  0  0  0  0  0  0  0  0  0  0
    3.4600    3.1284    0.0000 C   0  0  0  0  0  0  0  0  0  0  0  0
    4.2690    2.5406    0.0000 C   0  0  1  0  0  0  0  0  0  0  0  0
    3.7690    4.0794    0.0000 C   0  0  0  0  0  0  0  0  0  0  0  0
    4.7690    4.0794    0.0000 C   0  0  0  0  0  0  0  0  0  0  0  0
    4.2690    1.5406    0.0000 C   0  0  0  0  0  0  0  0  0  0  0  0
    3.4030    0.0406    0.0000 C   0  0  0  0  0  0  0  0  0  0  0  0
    2.5369   -0.4594    0.0000 C   0  0  0  0  0  0  0  0  0  0  0  0
    4.2690   -0.4594    0.0000 C   0  0  0  0  0  0  0  0  0  0  0  0
    3.4030   -1.9594    0.0000 C   0  0  0  0  0  0  0  0  0  0  0  0
    2.5369   -1.4594    0.0000 C   0  0  0  0  0  0  0  0  0  0  0  0
    4.2690   -1.4594    0.0000 C   0  0  0  0  0  0  0  0  0  0  0  0
    3.4030   -2.9594    0.0000 C   0  0  0  0  0  0  0  0  0  0  0  0
    2.8936    3.3805    0.0000 H   0  0  0  0  0  0  0  0  0  0  0  0
    3.1500    2.5914    0.0000 H   0  0  0  0  0  0  0  0  0  0  0  0
    4.8214    2.2591    0.0000 H   0  0  0  0  0  0  0  0  0  0  0  0
    3.8338    4.6960    0.0000 H   0  0  0  0  0  0  0  0  0  0  0  0
    3.1625    4.2083    0.0000 H   0  0  0  0  0  0  0  0  0  0  0  0
    5.3754    4.2083    0.0000 H   0  0  0  0  0  0  0  0  0  0  0  0
    4.7042    4.6960    0.0000 H   0  0  0  0  0  0  0  0  0  0  0  0
    2.8660    1.3506    0.0000 H   0  0  0  0  0  0  0  0  0  0  0  0
    2.0000   -0.1494    0.0000 H   0  0  0  0  0  0  0  0  0  0  0  0
    4.8059   -0.1494    0.0000 H   0  0  0  0  0  0  0  0  0  0  0  0
    2.0000   -1.7694    0.0000 H   0  0  0  0  0  0  0  0  0  0  0  0
    4.8059   -1.7694    0.0000 H   0  0  0  0  0  0  0  0  0  0  0  0
    2.5369   -4.0794    0.0000 H   0  0  0  0  0  0  0  0  0  0  0  0
    2.0000   -3.1494    0.0000 H   0  0  0  0  0  0  0  0  0  0  0  0
  1  7  1  0  0  0  0
  1  9  1  0  0  0  0
  2 10  2  0  0  0  0
  3 17  2  0  0  0  0
  4 10  1  0  0  0  0
  4 11  1  0  0  0  0
  4 25  1  0  0  0  0
  5 17  1  0  0  0  0
  5 30  1  0  0  0  0
  5 31  1  0  0  0  0
  6  7  1  0  0  0  0
  6  8  1  0  0  0  0
  6 18  1  0  0  0  0
  6 19  1  0  0  0  0
  7 10  1  6  0  0  0
  7 20  1  0  0  0  0
  8  9  1  0  0  0  0
  8 21  1  0  0  0  0
  8 22  1  0  0  0  0
  9 23  1  0  0  0  0
  9 24  1  0  0  0  0
 11 12  2  0  0  0  0
 11 13  1  0  0  0  0
 12 15  1  0  0  0  0
 12 26  1  0  0  0  0
 13 16  2  0  0  0  0
 13 27  1  0  0  0  0
 14 15  2  0  0  0  0
 14 16  1  0  0  0  0
 14 17  1  0  0  0  0
 15 28  1  0  0  0  0
 16 29  1  0  0  0  0
M  END
> <PUBCHEM_COMPOUND_CID>
1086839

> <PUBCHEM_COMPOUND_CANONICALIZED>
1

> <PUBCHEM_CACTVS_COMPLEXITY>
298

> <PUBCHEM_CACTVS_HBOND_ACCEPTOR>
3

> <PUBCHEM_CACTVS_HBOND_DONOR>
2

> <PUBCHEM_CACTVS_ROTATABLE_BOND>
3

> <PUBCHEM_CACTVS_SUBSKEYS>
AAADccBzMAAAAAAAAAAAAAAAAAAAASAAAAAwAAAAAAAAAAABAAAAHgAQAAAADByhmAIwwILABACIAiVSUAKCAAAlAgAIiAFAZMgKIDLAlZWHIQhklADYyYeYnQKeCAAAAAAAAAAQAAAAAAAAAAAAAAAAAA==

> <PUBCHEM_IUPAC_OPENEYE_NAME>
(2S)-N-(4-carbamoylphenyl)tetrahydrofuran-2-carboxamide

> <PUBCHEM_IUPAC_CAS_NAME>
(2S)-N-(4-carbamoylphenyl)-2-oxolanecarboxamide

> <PUBCHEM_IUPAC_NAME_MARKUP>
(2<I>S</I>)-<I>N</I>-(4-carbamoylphenyl)oxolane-2-carboxamide

> <PUBCHEM_IUPAC_NAME>
(2S)-N-(4-carbamoylphenyl)oxolane-2-carboxamide

> <PUBCHEM_IUPAC_SYSTEMATIC_NAME>
(2S)-N-(4-aminocarbonylphenyl)oxolane-2-carboxamide

> <PUBCHEM_IUPAC_TRADITIONAL_NAME>
(2S)-N-(4-carbamoylphenyl)tetrahydrofuran-2-carboxamide

> <PUBCHEM_IUPAC_INCHI>
InChI=1S/C12H14N2O3/c13-11(15)8-3-5-9(6-4-8)14-12(16)10-2-1-7-17-10/h3-6,10H,1-2,7H2,(H2,13,15)(H,14,16)/t10-/m0/s1

> <PUBCHEM_IUPAC_INCHIKEY>
FSZYBIFIACXSAG-JTQLQIEISA-N

> <PUBCHEM_XLOGP3_AA>
0.4

> <PUBCHEM_EXACT_MASS>
234.100442

> <PUBCHEM_MOLECULAR_FORMULA>
C12H14N2O3

> <PUBCHEM_MOLECULAR_WEIGHT>
234.25

> <PUBCHEM_OPENEYE_CAN_SMILES>
C1CC(OC1)C(=O)NC2=CC=C(C=C2)C(=O)N

> <PUBCHEM_OPENEYE_ISO_SMILES>
C1C[C@H](OC1)C(=O)NC2=CC=C(C=C2)C(=O)N

> <PUBCHEM_CACTVS_TPSA>
81.4

> <PUBCHEM_MONOISOTOPIC_WEIGHT>
234.100442

> <PUBCHEM_TOTAL_CHARGE>
0

> <PUBCHEM_HEAVY_ATOM_COUNT>
17

> <PUBCHEM_ATOM_DEF_STEREO_COUNT>
1

> <PUBCHEM_ATOM_UDEF_STEREO_COUNT>
0

> <PUBCHEM_BOND_DEF_STEREO_COUNT>
0

> <PUBCHEM_BOND_UDEF_STEREO_COUNT>
0

> <PUBCHEM_ISOTOPIC_ATOM_COUNT>
0

> <PUBCHEM_COMPONENT_COUNT>
1

> <PUBCHEM_CACTVS_TAUTO_COUNT>
-1

> <PUBCHEM_COORDINATE_TYPE>
1
5
255

> <PUBCHEM_BONDANNOTATIONS>
11  12  8
11  13  8
12  15  8
13  16  8
14  15  8
14  16  8
7  10  6

$$$$
