11004289
  -OEChem-05242006132D

 57 60  0     1  0  0  0  0  0999 V2000
    7.3916    2.3112    0.0000 O   0  0  0  0  0  0  0  0  0  0  0  0
    7.8916   -0.2276    0.0000 O   0  0  0  0  0  0  0  0  0  0  0  0
    9.6517    1.0511    0.0000 O   0  0  0  0  0  0  0  0  0  0  0  0
    5.3884    1.7202    0.0000 O   0  0  0  0  0  0  0  0  0  0  0  0
    8.9794    3.1202    0.0000 O   0  0  0  0  0  0  0  0  0  0  0  0
    7.8916    0.7724    0.0000 C   0  0  2  0  0  0  0  0  0  0  0  0
    7.0826    1.3601    0.0000 C   0  0  1  0  0  0  0  0  0  0  0  0
    8.7006    1.3601    0.0000 C   0  0  2  0  0  0  0  0  0  0  0  0
    6.1316    1.0511    0.0000 C   0  0  0  0  0  0  0  0  0  0  0  0
    8.3916    2.3112    0.0000 C   0  0  0  0  0  0  0  0  0  0  0  0
    7.0256   -0.7276    0.0000 C   0  0  0  0  0  0  0  0  0  0  0  0
   10.3948    1.7202    0.0000 C   0  0  0  0  0  0  0  0  0  0  0  0
    7.0256   -1.7276    0.0000 C   0  0  0  0  0  0  0  0  0  0  0  0
    4.4374    1.4112    0.0000 C   0  0  0  0  0  0  0  0  0  0  0  0
   11.3459    1.4112    0.0000 C   0  0  0  0  0  0  0  0  0  0  0  0
    3.6942    2.0804    0.0000 C   0  0  0  0  0  0  0  0  0  0  0  0
    6.1596   -2.2276    0.0000 C   0  0  0  0  0  0  0  0  0  0  0  0
    7.8916   -2.2276    0.0000 C   0  0  0  0  0  0  0  0  0  0  0  0
   11.5538    0.4331    0.0000 C   0  0  0  0  0  0  0  0  0  0  0  0
   12.0890    2.0804    0.0000 C   0  0  0  0  0  0  0  0  0  0  0  0
    3.9021    3.0585    0.0000 C   0  0  0  0  0  0  0  0  0  0  0  0
    2.7431    1.7714    0.0000 C   0  0  0  0  0  0  0  0  0  0  0  0
    6.1596   -3.2276    0.0000 C   0  0  0  0  0  0  0  0  0  0  0  0
    7.8916   -3.2276    0.0000 C   0  0  0  0  0  0  0  0  0  0  0  0
   12.5049    0.1241    0.0000 C   0  0  0  0  0  0  0  0  0  0  0  0
   13.0401    1.7714    0.0000 C   0  0  0  0  0  0  0  0  0  0  0  0
    7.0256   -3.7276    0.0000 C   0  0  0  0  0  0  0  0  0  0  0  0
   13.2480    0.7932    0.0000 C   0  0  0  0  0  0  0  0  0  0  0  0
    3.1590    3.7276    0.0000 C   0  0  0  0  0  0  0  0  0  0  0  0
    2.0000    2.4405    0.0000 C   0  0  0  0  0  0  0  0  0  0  0  0
    2.2079    3.4186    0.0000 C   0  0  0  0  0  0  0  0  0  0  0  0
    8.4440    0.4909    0.0000 H   0  0  0  0  0  0  0  0  0  0  0  0
    6.6442    1.7986    0.0000 H   0  0  0  0  0  0  0  0  0  0  0  0
    9.1390    1.7986    0.0000 H   0  0  0  0  0  0  0  0  0  0  0  0
    5.6430    0.6694    0.0000 H   0  0  0  0  0  0  0  0  0  0  0  0
    6.4226    0.5037    0.0000 H   0  0  0  0  0  0  0  0  0  0  0  0
    6.8135   -0.1450    0.0000 H   0  0  0  0  0  0  0  0  0  0  0  0
    6.4150   -0.8353    0.0000 H   0  0  0  0  0  0  0  0  0  0  0  0
   10.6859    2.2677    0.0000 H   0  0  0  0  0  0  0  0  0  0  0  0
    9.9063    2.1020    0.0000 H   0  0  0  0  0  0  0  0  0  0  0  0
    3.9488    1.0295    0.0000 H   0  0  0  0  0  0  0  0  0  0  0  0
    4.7284    0.8638    0.0000 H   0  0  0  0  0  0  0  0  0  0  0  0
    5.6226   -1.9176    0.0000 H   0  0  0  0  0  0  0  0  0  0  0  0
    8.4286   -1.9176    0.0000 H   0  0  0  0  0  0  0  0  0  0  0  0
   11.0931    0.0182    0.0000 H   0  0  0  0  0  0  0  0  0  0  0  0
   11.9601    2.6868    0.0000 H   0  0  0  0  0  0  0  0  0  0  0  0
    4.4918    3.2501    0.0000 H   0  0  0  0  0  0  0  0  0  0  0  0
    2.6142    1.1649    0.0000 H   0  0  0  0  0  0  0  0  0  0  0  0
    5.6226   -3.5376    0.0000 H   0  0  0  0  0  0  0  0  0  0  0  0
    8.4286   -3.5376    0.0000 H   0  0  0  0  0  0  0  0  0  0  0  0
   12.6338   -0.4824    0.0000 H   0  0  0  0  0  0  0  0  0  0  0  0
   13.5008    2.1862    0.0000 H   0  0  0  0  0  0  0  0  0  0  0  0
    7.0256   -4.3476    0.0000 H   0  0  0  0  0  0  0  0  0  0  0  0
   13.8377    0.6016    0.0000 H   0  0  0  0  0  0  0  0  0  0  0  0
    3.2879    4.3341    0.0000 H   0  0  0  0  0  0  0  0  0  0  0  0
    1.4103    2.2489    0.0000 H   0  0  0  0  0  0  0  0  0  0  0  0
    1.7472    3.8335    0.0000 H   0  0  0  0  0  0  0  0  0  0  0  0
  1  7  1  0  0  0  0
  1 10  1  0  0  0  0
  6  2  1  6  0  0  0
  2 11  1  0  0  0  0
  8  3  1  6  0  0  0
  3 12  1  0  0  0  0
  4  9  1  0  0  0  0
  4 14  1  0  0  0  0
  5 10  2  0  0  0  0
  6  7  1  0  0  0  0
  6  8  1  0  0  0  0
  6 32  1  0  0  0  0
  7  9  1  1  0  0  0
  7 33  1  0  0  0  0
  8 10  1  0  0  0  0
  8 34  1  0  0  0  0
  9 35  1  0  0  0  0
  9 36  1  0  0  0  0
 11 13  1  0  0  0  0
 11 37  1  0  0  0  0
 11 38  1  0  0  0  0
 12 15  1  0  0  0  0
 12 39  1  0  0  0  0
 12 40  1  0  0  0  0
 13 17  2  0  0  0  0
 13 18  1  0  0  0  0
 14 16  1  0  0  0  0
 14 41  1  0  0  0  0
 14 42  1  0  0  0  0
 15 19  2  0  0  0  0
 15 20  1  0  0  0  0
 16 21  2  0  0  0  0
 16 22  1  0  0  0  0
 17 23  1  0  0  0  0
 17 43  1  0  0  0  0
 18 24  2  0  0  0  0
 18 44  1  0  0  0  0
 19 25  1  0  0  0  0
 19 45  1  0  0  0  0
 20 26  2  0  0  0  0
 20 46  1  0  0  0  0
 21 29  1  0  0  0  0
 21 47  1  0  0  0  0
 22 30  2  0  0  0  0
 22 48  1  0  0  0  0
 23 27  2  0  0  0  0
 23 49  1  0  0  0  0
 24 27  1  0  0  0  0
 24 50  1  0  0  0  0
 25 28  2  0  0  0  0
 25 51  1  0  0  0  0
 26 28  1  0  0  0  0
 26 52  1  0  0  0  0
 27 53  1  0  0  0  0
 28 54  1  0  0  0  0
 29 31  2  0  0  0  0
 29 55  1  0  0  0  0
 30 31  1  0  0  0  0
 30 56  1  0  0  0  0
 31 57  1  0  0  0  0
M  END
> <PUBCHEM_COMPOUND_CID>
11004289

> <PUBCHEM_COMPOUND_CANONICALIZED>
1

> <PUBCHEM_CACTVS_COMPLEXITY>
520

> <PUBCHEM_CACTVS_HBOND_ACCEPTOR>
5

> <PUBCHEM_CACTVS_HBOND_DONOR>
0

> <PUBCHEM_CACTVS_ROTATABLE_BOND>
10

> <PUBCHEM_CACTVS_SUBSKEYS>
AAADceB4OAAAAAAAAAAAAAAAAAAAASAAAAAwYMAAAAAAAAABUAAAGgAAAAAADBSgmAIwCIAABACIAiDSCAICAAAgAAAIiAFACIgJJjaAMRyCMAAl4AEKqAfK5CgOAAAAAAAAAAAAAAAAAAAAAAAAAAAAAA==

> <PUBCHEM_IUPAC_OPENEYE_NAME>
(3R,4R,5R)-3,4-dibenzyloxy-5-(benzyloxymethyl)tetrahydrofuran-2-one

> <PUBCHEM_IUPAC_CAS_NAME>
(3R,4R,5R)-3,4-bis(phenylmethoxy)-5-(phenylmethoxymethyl)-2-oxolanone

> <PUBCHEM_IUPAC_NAME_MARKUP>
(3<I>R</I>,4<I>R</I>,5<I>R</I>)-3,4-bis(phenylmethoxy)-5-(phenylmethoxymethyl)oxolan-2-one

> <PUBCHEM_IUPAC_NAME>
(3R,4R,5R)-3,4-bis(phenylmethoxy)-5-(phenylmethoxymethyl)oxolan-2-one

> <PUBCHEM_IUPAC_SYSTEMATIC_NAME>
(3R,4R,5R)-3,4-bis(phenylmethoxy)-5-(phenylmethoxymethyl)oxolan-2-one

> <PUBCHEM_IUPAC_TRADITIONAL_NAME>
(3R,4R,5R)-3,4-dibenzoxy-5-(benzoxymethyl)tetrahydrofuran-2-one

> <PUBCHEM_IUPAC_INCHI>
InChI=1S/C26H26O5/c27-26-25(30-18-22-14-8-3-9-15-22)24(29-17-21-12-6-2-7-13-21)23(31-26)19-28-16-20-10-4-1-5-11-20/h1-15,23-25H,16-19H2/t23-,24-,25-/m1/s1

> <PUBCHEM_IUPAC_INCHIKEY>
LDHBSABBBAUMCZ-UBFVSLLYSA-N

> <PUBCHEM_XLOGP3_AA>
4.1

> <PUBCHEM_EXACT_MASS>
418.178024

> <PUBCHEM_MOLECULAR_FORMULA>
C26H26O5

> <PUBCHEM_MOLECULAR_WEIGHT>
418.5

> <PUBCHEM_OPENEYE_CAN_SMILES>
C1=CC=C(C=C1)COCC2C(C(C(=O)O2)OCC3=CC=CC=C3)OCC4=CC=CC=C4

> <PUBCHEM_OPENEYE_ISO_SMILES>
C1=CC=C(C=C1)COC[C@@H]2[C@H]([C@H](C(=O)O2)OCC3=CC=CC=C3)OCC4=CC=CC=C4

> <PUBCHEM_CACTVS_TPSA>
54

> <PUBCHEM_MONOISOTOPIC_WEIGHT>
418.178024

> <PUBCHEM_TOTAL_CHARGE>
0

> <PUBCHEM_HEAVY_ATOM_COUNT>
31

> <PUBCHEM_ATOM_DEF_STEREO_COUNT>
3

> <PUBCHEM_ATOM_UDEF_STEREO_COUNT>
0

> <PUBCHEM_BOND_DEF_STEREO_COUNT>
0

> <PUBCHEM_BOND_UDEF_STEREO_COUNT>
0

> <PUBCHEM_ISOTOPIC_ATOM_COUNT>
0

> <PUBCHEM_COMPONENT_COUNT>
1

> <PUBCHEM_CACTVS_TAUTO_COUNT>
-1

> <PUBCHEM_COORDINATE_TYPE>
1
5
255

> <PUBCHEM_BONDANNOTATIONS>
13  17  8
13  18  8
15  19  8
15  20  8
16  21  8
16  22  8
17  23  8
18  24  8
19  25  8
6  2  6
20  26  8
21  29  8
22  30  8
23  27  8
24  27  8
25  28  8
26  28  8
29  31  8
8  3  6
30  31  8
7  9  5

$$$$
