11614223
  -OEChem-05242006132D

 57 57  0     1  0  0  0  0  0999 V2000
    6.9282    3.4506    0.0000 S   0  0  0  0  0  0  0  0  0  0  0  0
    4.3301    4.9506    0.0000 S   0  0  0  0  0  0  0  0  0  0  0  0
   13.7624    2.9550    0.0000 S   0  0  0  0  0  0  0  0  0  0  0  0
    6.0622    7.9506    0.0000 Na  0  3  0  0  0  0  0  0  0  0  0  0
    0.0000    6.4506    0.0000 Na  0  3  0  0  0  0  0  0  0  0  0  0
    9.5082    5.6633    0.0000 O   0  0  0  0  0  0  0  0  0  0  0  0
    6.0622    6.9506    0.0000 O   0  5  0  0  0  0  0  0  0  0  0  0
    7.7942    6.9506    0.0000 O   0  0  0  0  0  0  0  0  0  0  0  0
   10.7354    4.4601    0.0000 O   0  0  0  0  0  0  0  0  0  0  0  0
    9.9530    1.5639    0.0000 O   0  0  0  0  0  0  0  0  0  0  0  0
    2.5981    7.9506    0.0000 O   0  0  0  0  0  0  0  0  0  0  0  0
    0.8660    6.9506    0.0000 O   0  5  0  0  0  0  0  0  0  0  0  0
    7.3743    9.9519    0.0000 O   0  0  0  0  0  0  0  0  0  0  0  0
    7.7942    4.9506    0.0000 N   0  0  0  0  0  0  0  0  0  0  0  0
    9.5082    3.2379    0.0000 N   0  0  0  0  0  0  0  0  0  0  0  0
   10.9195    1.8208    0.0000 N   0  0  0  0  0  0  0  0  0  0  0  0
    2.5981    4.9506    0.0000 N   0  0  0  0  0  0  0  0  0  0  0  0
   12.5070    3.9758    0.0000 N   0  0  0  0  0  0  0  0  0  0  0  0
    3.4641    6.4506    0.0000 N   0  0  0  0  0  0  0  0  0  0  0  0
    1.7320    5.4506    0.0000 N   0  0  0  0  0  0  0  0  0  0  0  0
   14.1364    4.6973    0.0000 N   0  0  0  0  0  0  0  0  0  0  0  0
    7.7942    3.9506    0.0000 C   0  0  1  0  0  0  0  0  0  0  0  0
    8.8025    3.9464    0.0000 C   0  0  1  0  0  0  0  0  0  0  0  0
    8.8025    4.9547    0.0000 C   0  0  0  0  0  0  0  0  0  0  0  0
    6.9282    5.4506    0.0000 C   0  0  0  0  0  0  0  0  0  0  0  0
    6.0622    4.9506    0.0000 C   0  0  0  0  0  0  0  0  0  0  0  0
    6.0622    3.9506    0.0000 C   0  0  0  0  0  0  0  0  0  0  0  0
    5.1962    5.4506    0.0000 C   0  0  0  0  0  0  0  0  0  0  0  0
    6.9282    6.4506    0.0000 C   0  0  0  0  0  0  0  0  0  0  0  0
   10.4746    3.4947    0.0000 C   0  0  0  0  0  0  0  0  0  0  0  0
   11.1803    2.7862    0.0000 C   0  0  0  0  0  0  0  0  0  0  0  0
    3.4641    5.4506    0.0000 C   0  0  0  0  0  0  0  0  0  0  0  0
   12.1467    3.0430    0.0000 C   0  0  0  0  0  0  0  0  0  0  0  0
   12.9226    2.4121    0.0000 C   0  0  0  0  0  0  0  0  0  0  0  0
    2.5981    3.9506    0.0000 C   0  0  0  0  0  0  0  0  0  0  0  0
   13.5055    3.9214    0.0000 C   0  0  0  0  0  0  0  0  0  0  0  0
    2.5981    6.9506    0.0000 C   0  0  0  0  0  0  0  0  0  0  0  0
    1.7320    6.4506    0.0000 C   0  0  0  0  0  0  0  0  0  0  0  0
    9.6922    0.5985    0.0000 C   0  0  0  0  0  0  0  0  0  0  0  0
    8.0125    3.1291    0.0000 H   0  0  0  0  0  0  0  0  0  0  0  0
    8.5635    3.3744    0.0000 H   0  0  0  0  0  0  0  0  0  0  0  0
    5.4516    4.0582    0.0000 H   0  0  0  0  0  0  0  0  0  0  0  0
    5.8501    3.3680    0.0000 H   0  0  0  0  0  0  0  0  0  0  0  0
    9.3465    2.6393    0.0000 H   0  0  0  0  0  0  0  0  0  0  0  0
    5.5947    5.9255    0.0000 H   0  0  0  0  0  0  0  0  0  0  0  0
    4.7976    5.9255    0.0000 H   0  0  0  0  0  0  0  0  0  0  0  0
   12.8889    1.7930    0.0000 H   0  0  0  0  0  0  0  0  0  0  0  0
    1.9781    3.9506    0.0000 H   0  0  0  0  0  0  0  0  0  0  0  0
    2.5981    3.3306    0.0000 H   0  0  0  0  0  0  0  0  0  0  0  0
    3.2181    3.9506    0.0000 H   0  0  0  0  0  0  0  0  0  0  0  0
    9.0937    0.7602    0.0000 H   0  0  0  0  0  0  0  0  0  0  0  0
    9.5305    0.0000    0.0000 H   0  0  0  0  0  0  0  0  0  0  0  0
   10.2907    0.4368    0.0000 H   0  0  0  0  0  0  0  0  0  0  0  0
   14.7486    4.5990    0.0000 H   0  0  0  0  0  0  0  0  0  0  0  0
   13.9154    5.2766    0.0000 H   0  0  0  0  0  0  0  0  0  0  0  0
    7.9112   10.2619    0.0000 H   0  0  0  0  0  0  0  0  0  0  0  0
    6.8374   10.2619    0.0000 H   0  0  0  0  0  0  0  0  0  0  0  0
  1 22  1  0  0  0  0
  1 27  1  0  0  0  0
  2 28  1  0  0  0  0
  2 32  1  0  0  0  0
  3 34  1  0  0  0  0
  3 36  1  0  0  0  0
  6 24  2  0  0  0  0
  7 29  1  0  0  0  0
  8 29  2  0  0  0  0
  9 30  2  0  0  0  0
 10 16  1  0  0  0  0
 10 39  1  0  0  0  0
 11 37  2  0  0  0  0
 12 38  1  0  0  0  0
 13 56  1  0  0  0  0
 13 57  1  0  0  0  0
 14 22  1  0  0  0  0
 14 24  1  0  0  0  0
 14 25  1  0  0  0  0
 23 15  1  1  0  0  0
 15 30  1  0  0  0  0
 15 44  1  0  0  0  0
 16 31  2  0  0  0  0
 17 20  1  0  0  0  0
 17 32  1  0  0  0  0
 17 35  1  0  0  0  0
 18 33  1  0  0  0  0
 18 36  2  0  0  0  0
 19 32  2  0  0  0  0
 19 37  1  0  0  0  0
 20 38  2  0  0  0  0
 21 36  1  0  0  0  0
 21 54  1  0  0  0  0
 21 55  1  0  0  0  0
 22 23  1  0  0  0  0
 22 40  1  6  0  0  0
 23 24  1  0  0  0  0
 23 41  1  0  0  0  0
 25 26  2  0  0  0  0
 25 29  1  0  0  0  0
 26 27  1  0  0  0  0
 26 28  1  0  0  0  0
 27 42  1  0  0  0  0
 27 43  1  0  0  0  0
 28 45  1  0  0  0  0
 28 46  1  0  0  0  0
 30 31  1  0  0  0  0
 31 33  1  0  0  0  0
 33 34  2  0  0  0  0
 34 47  1  0  0  0  0
 35 48  1  0  0  0  0
 35 49  1  0  0  0  0
 35 50  1  0  0  0  0
 37 38  1  0  0  0  0
 39 51  1  0  0  0  0
 39 52  1  0  0  0  0
 39 53  1  0  0  0  0
M  CHG  4   4   1   5   1   7  -1  12  -1
M  END
> <PUBCHEM_COMPOUND_CID>
11614223

> <PUBCHEM_COMPOUND_CANONICALIZED>
1

> <PUBCHEM_CACTVS_COMPLEXITY>
1120

> <PUBCHEM_CACTVS_HBOND_ACCEPTOR>
15

> <PUBCHEM_CACTVS_HBOND_DONOR>
3

> <PUBCHEM_CACTVS_ROTATABLE_BOND>
7

> <PUBCHEM_CACTVS_SUBSKEYS>
AAADceB7/DBgAAAAAAAAAAAAAABYAWAAAAAgQAAAAAAQAAABgAAAHgQcCAAADCjF1gajmRPYEAisAwXyfAIQ8KlhCjkBCJX4IFiCZJggxCEUEAAAHgKwASAAAAAAAAAAAAAAAAAAAAAAAAAAAAAAAAAAAA==

> <PUBCHEM_IUPAC_OPENEYE_NAME>
disodium;(6R,7R)-7-[[(2Z)-2-(2-aminothiazol-4-yl)-2-methoxyimino-acetyl]amino]-3-[(2-methyl-6-oxido-5-oxo-1,2,4-triazin-3-yl)sulfanylmethyl]-8-oxo-5-thia-1-azabicyclo[4.2.0]oct-2-ene-2-carboxylate;hydrate

> <PUBCHEM_IUPAC_CAS_NAME>
disodium;(6R,7R)-7-[[(2Z)-2-(2-amino-4-thiazolyl)-2-methoxyimino-1-oxoethyl]amino]-3-[[(2-methyl-6-oxido-5-oxo-1,2,4-triazin-3-yl)thio]methyl]-8-oxo-5-thia-1-azabicyclo[4.2.0]oct-2-ene-2-carboxylate;hydrate

> <PUBCHEM_IUPAC_NAME_MARKUP>
disodium;(6<I>R</I>,7<I>R</I>)-7-[[(2<I>Z</I>)-2-(2-amino-1,3-thiazol-4-yl)-2-methoxyiminoacetyl]amino]-3-[(2-methyl-6-oxido-5-oxo-1,2,4-triazin-3-yl)sulfanylmethyl]-8-oxo-5-thia-1-azabicyclo[4.2.0]oct-2-ene-2-carboxylate;hydrate

> <PUBCHEM_IUPAC_NAME>
disodium;(6R,7R)-7-[[(2Z)-2-(2-amino-1,3-thiazol-4-yl)-2-methoxyiminoacetyl]amino]-3-[(2-methyl-6-oxido-5-oxo-1,2,4-triazin-3-yl)sulfanylmethyl]-8-oxo-5-thia-1-azabicyclo[4.2.0]oct-2-ene-2-carboxylate;hydrate

> <PUBCHEM_IUPAC_SYSTEMATIC_NAME>
disodium;(6R,7R)-7-[[(2Z)-2-(2-azanyl-1,3-thiazol-4-yl)-2-methoxyimino-ethanoyl]amino]-3-[(2-methyl-6-oxidanidyl-5-oxidanylidene-1,2,4-triazin-3-yl)sulfanylmethyl]-8-oxidanylidene-5-thia-1-azabicyclo[4.2.0]oct-2-ene-2-carboxylate;hydrate

> <PUBCHEM_IUPAC_TRADITIONAL_NAME>
disodium;(6R,7R)-7-[[(2Z)-2-(2-aminothiazol-4-yl)-2-methyloximino-acetyl]amino]-8-keto-3-[[(5-keto-2-methyl-6-oxido-1,2,4-triazin-3-yl)thio]methyl]-5-thia-1-azabicyclo[4.2.0]oct-2-ene-2-carboxylate;hydrate

> <PUBCHEM_IUPAC_INCHI>
InChI=1S/C18H18N8O7S3.2Na.H2O/c1-25-18(22-12(28)13(29)23-25)36-4-6-3-34-15-9(14(30)26(15)10(6)16(31)32)21-11(27)8(24-33-2)7-5-35-17(19)20-7;;;/h5,9,15H,3-4H2,1-2H3,(H2,19,20)(H,21,27)(H,23,29)(H,31,32);;;1H2/q;2*+1;/p-2/b24-8-;;;/t9-,15-;;;/m1.../s1

> <PUBCHEM_IUPAC_INCHIKEY>
NTQTUYCYXGWAPN-PZSKLDMFSA-L

> <PUBCHEM_EXACT_MASS>
616.020512

> <PUBCHEM_MOLECULAR_FORMULA>
C18H18N8Na2O8S3

> <PUBCHEM_MOLECULAR_WEIGHT>
616.6

> <PUBCHEM_OPENEYE_CAN_SMILES>
CN1C(=NC(=O)C(=N1)[O-])SCC2=C(N3C(C(C3=O)NC(=O)C(=NOC)C4=CSC(=N4)N)SC2)C(=O)[O-].O.[Na+].[Na+]

> <PUBCHEM_OPENEYE_ISO_SMILES>
CN1C(=NC(=O)C(=N1)[O-])SCC2=C(N3[C@@H]([C@@H](C3=O)NC(=O)/C(=N\OC)/C4=CSC(=N4)N)SC2)C(=O)[O-].O.[Na+].[Na+]

> <PUBCHEM_CACTVS_TPSA>
298

> <PUBCHEM_MONOISOTOPIC_WEIGHT>
616.020512

> <PUBCHEM_TOTAL_CHARGE>
0

> <PUBCHEM_HEAVY_ATOM_COUNT>
39

> <PUBCHEM_ATOM_DEF_STEREO_COUNT>
2

> <PUBCHEM_ATOM_UDEF_STEREO_COUNT>
0

> <PUBCHEM_BOND_DEF_STEREO_COUNT>
1

> <PUBCHEM_BOND_UDEF_STEREO_COUNT>
0

> <PUBCHEM_ISOTOPIC_ATOM_COUNT>
0

> <PUBCHEM_COMPONENT_COUNT>
4

> <PUBCHEM_CACTVS_TAUTO_COUNT>
-1

> <PUBCHEM_COORDINATE_TYPE>
1
5
255

> <PUBCHEM_BONDANNOTATIONS>
23  15  5
17  20  8
17  32  8
18  33  8
18  36  8
19  32  8
19  37  8
20  38  8
22  40  6
3  34  8
3  36  8
33  34  8
37  38  8

$$$$
