118569
  -OEChem-05242006112D

 26 26  0     0  0  0  0  0  0999 V2000
    4.5981    2.0670    0.0000 S   0  0  0  0  0  0  0  0  0  0  0  0
    4.0981    2.9330    0.0000 O   0  0  0  0  0  0  0  0  0  0  0  0
    5.0981    1.2010    0.0000 O   0  0  0  0  0  0  0  0  0  0  0  0
    3.7320    1.5670    0.0000 N   0  0  0  0  0  0  0  0  0  0  0  0
    2.8660    0.0670    0.0000 C   0  0  0  0  0  0  0  0  0  0  0  0
    3.7320    0.5670    0.0000 C   0  0  0  0  0  0  0  0  0  0  0  0
    2.8660   -0.9330    0.0000 C   0  0  0  0  0  0  0  0  0  0  0  0
    2.0000   -1.4330    0.0000 C   0  0  0  0  0  0  0  0  0  0  0  0
    3.7320   -1.4330    0.0000 C   0  0  0  0  0  0  0  0  0  0  0  0
    5.4641    2.5670    0.0000 C   0  0  0  0  0  0  0  0  0  0  0  0
    2.0000   -2.4330    0.0000 C   0  0  0  0  0  0  0  0  0  0  0  0
    3.7320   -2.4330    0.0000 C   0  0  0  0  0  0  0  0  0  0  0  0
    2.8660   -2.9330    0.0000 C   0  0  0  0  0  0  0  0  0  0  0  0
    2.6540    0.6496    0.0000 H   0  0  0  0  0  0  0  0  0  0  0  0
    2.2554   -0.0407    0.0000 H   0  0  0  0  0  0  0  0  0  0  0  0
    3.9441   -0.0156    0.0000 H   0  0  0  0  0  0  0  0  0  0  0  0
    4.3426    0.6746    0.0000 H   0  0  0  0  0  0  0  0  0  0  0  0
    3.1951    1.8770    0.0000 H   0  0  0  0  0  0  0  0  0  0  0  0
    1.4631   -1.1230    0.0000 H   0  0  0  0  0  0  0  0  0  0  0  0
    4.2690   -1.1230    0.0000 H   0  0  0  0  0  0  0  0  0  0  0  0
    5.7741    2.0300    0.0000 H   0  0  0  0  0  0  0  0  0  0  0  0
    6.0010    2.8770    0.0000 H   0  0  0  0  0  0  0  0  0  0  0  0
    5.1541    3.1039    0.0000 H   0  0  0  0  0  0  0  0  0  0  0  0
    1.4631   -2.7430    0.0000 H   0  0  0  0  0  0  0  0  0  0  0  0
    4.2690   -2.7430    0.0000 H   0  0  0  0  0  0  0  0  0  0  0  0
    2.8660   -3.5530    0.0000 H   0  0  0  0  0  0  0  0  0  0  0  0
  1  2  2  0  0  0  0
  1  3  2  0  0  0  0
  1  4  1  0  0  0  0
  1 10  1  0  0  0  0
  4  6  1  0  0  0  0
  4 18  1  0  0  0  0
  5  6  1  0  0  0  0
  5  7  1  0  0  0  0
  5 14  1  0  0  0  0
  5 15  1  0  0  0  0
  6 16  1  0  0  0  0
  6 17  1  0  0  0  0
  7  8  2  0  0  0  0
  7  9  1  0  0  0  0
  8 11  1  0  0  0  0
  8 19  1  0  0  0  0
  9 12  2  0  0  0  0
  9 20  1  0  0  0  0
 10 21  1  0  0  0  0
 10 22  1  0  0  0  0
 10 23  1  0  0  0  0
 11 13  2  0  0  0  0
 11 24  1  0  0  0  0
 12 13  1  0  0  0  0
 12 25  1  0  0  0  0
 13 26  1  0  0  0  0
M  END
> <PUBCHEM_COMPOUND_CID>
118569

> <PUBCHEM_COMPOUND_CANONICALIZED>
1

> <PUBCHEM_CACTVS_COMPLEXITY>
225

> <PUBCHEM_CACTVS_HBOND_ACCEPTOR>
3

> <PUBCHEM_CACTVS_HBOND_DONOR>
1

> <PUBCHEM_CACTVS_ROTATABLE_BOND>
4

> <PUBCHEM_CACTVS_SUBSKEYS>
AAADccByMABAAAAAAAAAAAAAAAAAAAAAAAAwAAAAAAAAAAABAAAAHAQQQAAADADBGASyAIBAAAKAAiBCAHACAAAgAAAIiIAAAIgIICKAkRGAIAAgkAAIiAcQgIAOAAAAAAAAAAAAAAAAAAAAAAAAAAAAAA==

> <PUBCHEM_IUPAC_OPENEYE_NAME>
N-(2-phenylethyl)methanesulfonamide

> <PUBCHEM_IUPAC_CAS_NAME>
N-(2-phenylethyl)methanesulfonamide

> <PUBCHEM_IUPAC_NAME_MARKUP>
<I>N</I>-(2-phenylethyl)methanesulfonamide

> <PUBCHEM_IUPAC_NAME>
N-(2-phenylethyl)methanesulfonamide

> <PUBCHEM_IUPAC_SYSTEMATIC_NAME>
N-(2-phenylethyl)methanesulfonamide

> <PUBCHEM_IUPAC_TRADITIONAL_NAME>
N-phenethylmethanesulfonamide

> <PUBCHEM_IUPAC_INCHI>
InChI=1S/C9H13NO2S/c1-13(11,12)10-8-7-9-5-3-2-4-6-9/h2-6,10H,7-8H2,1H3

> <PUBCHEM_IUPAC_INCHIKEY>
JGDDFCYMSLNOGJ-UHFFFAOYSA-N

> <PUBCHEM_XLOGP3>
1.5

> <PUBCHEM_EXACT_MASS>
199.0667

> <PUBCHEM_MOLECULAR_FORMULA>
C9H13NO2S

> <PUBCHEM_MOLECULAR_WEIGHT>
199.27

> <PUBCHEM_OPENEYE_CAN_SMILES>
CS(=O)(=O)NCCC1=CC=CC=C1

> <PUBCHEM_OPENEYE_ISO_SMILES>
CS(=O)(=O)NCCC1=CC=CC=C1

> <PUBCHEM_CACTVS_TPSA>
54.6

> <PUBCHEM_MONOISOTOPIC_WEIGHT>
199.0667

> <PUBCHEM_TOTAL_CHARGE>
0

> <PUBCHEM_HEAVY_ATOM_COUNT>
13

> <PUBCHEM_ATOM_DEF_STEREO_COUNT>
0

> <PUBCHEM_ATOM_UDEF_STEREO_COUNT>
0

> <PUBCHEM_BOND_DEF_STEREO_COUNT>
0

> <PUBCHEM_BOND_UDEF_STEREO_COUNT>
0

> <PUBCHEM_ISOTOPIC_ATOM_COUNT>
0

> <PUBCHEM_COMPONENT_COUNT>
1

> <PUBCHEM_CACTVS_TAUTO_COUNT>
-1

> <PUBCHEM_COORDINATE_TYPE>
1
5
255

> <PUBCHEM_BONDANNOTATIONS>
11  13  8
12  13  8
7  8  8
7  9  8
8  11  8
9  12  8

$$$$
