11953897
  -OEChem-05242006132D

129124  0     1  0  0  0  0  0999 V2000
    6.9282   13.4025    0.0000 S   0  0  0  0  0  0  0  0  0  0  0  0
    6.9282    3.4506    0.0000 S   0  0  0  0  0  0  0  0  0  0  0  0
    4.3301   14.9025    0.0000 S   0  0  0  0  0  0  0  0  0  0  0  0
    4.3301    4.9506    0.0000 S   0  0  0  0  0  0  0  0  0  0  0  0
   13.7624   12.9069    0.0000 S   0  0  0  0  0  0  0  0  0  0  0  0
   13.7624    2.9550    0.0000 S   0  0  0  0  0  0  0  0  0  0  0  0
    6.0622   17.9025    0.0000 Na  0  3  0  0  0  0  0  0  0  0  0  0
    6.0622    7.9506    0.0000 Na  0  3  0  0  0  0  0  0  0  0  0  0
    0.0000    6.4506    0.0000 Na  0  3  0  0  0  0  0  0  0  0  0  0
    0.0000   16.4025    0.0000 Na  0  3  0  0  0  0  0  0  0  0  0  0
    9.5082   15.6152    0.0000 O   0  0  0  0  0  0  0  0  0  0  0  0
    9.5082    5.6633    0.0000 O   0  0  0  0  0  0  0  0  0  0  0  0
    6.0622   16.9025    0.0000 O   0  5  0  0  0  0  0  0  0  0  0  0
    6.0622    6.9506    0.0000 O   0  5  0  0  0  0  0  0  0  0  0  0
    7.7942   16.9025    0.0000 O   0  0  0  0  0  0  0  0  0  0  0  0
    7.7942    6.9506    0.0000 O   0  0  0  0  0  0  0  0  0  0  0  0
   10.7354   14.4120    0.0000 O   0  0  0  0  0  0  0  0  0  0  0  0
   10.7354    4.4601    0.0000 O   0  0  0  0  0  0  0  0  0  0  0  0
    9.9530   11.5158    0.0000 O   0  0  0  0  0  0  0  0  0  0  0  0
    9.9530    1.5639    0.0000 O   0  0  0  0  0  0  0  0  0  0  0  0
    2.5981   17.9025    0.0000 O   0  0  0  0  0  0  0  0  0  0  0  0
    2.5981    7.9506    0.0000 O   0  0  0  0  0  0  0  0  0  0  0  0
    0.8660   16.9025    0.0000 O   0  5  0  0  0  0  0  0  0  0  0  0
    0.8660    6.9506    0.0000 O   0  5  0  0  0  0  0  0  0  0  0  0
   17.2868    3.6979    0.0000 O   0  0  0  0  0  0  0  0  0  0  0  0
   17.2868   16.2058    0.0000 O   0  0  0  0  0  0  0  0  0  0  0  0
   17.2868   13.7043    0.0000 O   0  0  0  0  0  0  0  0  0  0  0  0
   17.2868   11.2027    0.0000 O   0  0  0  0  0  0  0  0  0  0  0  0
   17.2868    8.7011    0.0000 O   0  0  0  0  0  0  0  0  0  0  0  0
   17.2868    6.1995    0.0000 O   0  0  0  0  0  0  0  0  0  0  0  0
   17.2868    1.1963    0.0000 O   0  0  0  0  0  0  0  0  0  0  0  0
    7.7942   14.9025    0.0000 N   0  0  0  0  0  0  0  0  0  0  0  0
    7.7942    4.9506    0.0000 N   0  0  0  0  0  0  0  0  0  0  0  0
    9.5082   13.1897    0.0000 N   0  0  0  0  0  0  0  0  0  0  0  0
    9.5082    3.2379    0.0000 N   0  0  0  0  0  0  0  0  0  0  0  0
   10.9195   11.7726    0.0000 N   0  0  0  0  0  0  0  0  0  0  0  0
   10.9195    1.8208    0.0000 N   0  0  0  0  0  0  0  0  0  0  0  0
    2.5981   14.9025    0.0000 N   0  0  0  0  0  0  0  0  0  0  0  0
    2.5981    4.9506    0.0000 N   0  0  0  0  0  0  0  0  0  0  0  0
   12.5070   13.9277    0.0000 N   0  0  0  0  0  0  0  0  0  0  0  0
   12.5070    3.9758    0.0000 N   0  0  0  0  0  0  0  0  0  0  0  0
    3.4641   16.4025    0.0000 N   0  0  0  0  0  0  0  0  0  0  0  0
    3.4641    6.4506    0.0000 N   0  0  0  0  0  0  0  0  0  0  0  0
    1.7320   15.4025    0.0000 N   0  0  0  0  0  0  0  0  0  0  0  0
    1.7320    5.4506    0.0000 N   0  0  0  0  0  0  0  0  0  0  0  0
   14.1364   14.6492    0.0000 N   0  0  0  0  0  0  0  0  0  0  0  0
   14.1364    4.6973    0.0000 N   0  0  0  0  0  0  0  0  0  0  0  0
    7.7942   13.9025    0.0000 C   0  0  1  0  0  0  0  0  0  0  0  0
    7.7942    3.9506    0.0000 C   0  0  1  0  0  0  0  0  0  0  0  0
    8.8025   13.8983    0.0000 C   0  0  1  0  0  0  0  0  0  0  0  0
    8.8025    3.9464    0.0000 C   0  0  1  0  0  0  0  0  0  0  0  0
    8.8025   14.9066    0.0000 C   0  0  0  0  0  0  0  0  0  0  0  0
    8.8025    4.9547    0.0000 C   0  0  0  0  0  0  0  0  0  0  0  0
    6.9282   15.4025    0.0000 C   0  0  0  0  0  0  0  0  0  0  0  0
    6.9282    5.4506    0.0000 C   0  0  0  0  0  0  0  0  0  0  0  0
    6.0622   14.9025    0.0000 C   0  0  0  0  0  0  0  0  0  0  0  0
    6.0622    4.9506    0.0000 C   0  0  0  0  0  0  0  0  0  0  0  0
    6.0622   13.9025    0.0000 C   0  0  0  0  0  0  0  0  0  0  0  0
    6.0622    3.9506    0.0000 C   0  0  0  0  0  0  0  0  0  0  0  0
    5.1962   15.4025    0.0000 C   0  0  0  0  0  0  0  0  0  0  0  0
    5.1962    5.4506    0.0000 C   0  0  0  0  0  0  0  0  0  0  0  0
    6.9282   16.4025    0.0000 C   0  0  0  0  0  0  0  0  0  0  0  0
    6.9282    6.4506    0.0000 C   0  0  0  0  0  0  0  0  0  0  0  0
   10.4746   13.4466    0.0000 C   0  0  0  0  0  0  0  0  0  0  0  0
   10.4746    3.4947    0.0000 C   0  0  0  0  0  0  0  0  0  0  0  0
   11.1803   12.7380    0.0000 C   0  0  0  0  0  0  0  0  0  0  0  0
   11.1803    2.7862    0.0000 C   0  0  0  0  0  0  0  0  0  0  0  0
    3.4641   15.4025    0.0000 C   0  0  0  0  0  0  0  0  0  0  0  0
    3.4641    5.4506    0.0000 C   0  0  0  0  0  0  0  0  0  0  0  0
   12.1467   12.9949    0.0000 C   0  0  0  0  0  0  0  0  0  0  0  0
   12.1467    3.0430    0.0000 C   0  0  0  0  0  0  0  0  0  0  0  0
   12.9226   12.3639    0.0000 C   0  0  0  0  0  0  0  0  0  0  0  0
   12.9226    2.4121    0.0000 C   0  0  0  0  0  0  0  0  0  0  0  0
    2.5981   13.9025    0.0000 C   0  0  0  0  0  0  0  0  0  0  0  0
    2.5981    3.9506    0.0000 C   0  0  0  0  0  0  0  0  0  0  0  0
   13.5055   13.8733    0.0000 C   0  0  0  0  0  0  0  0  0  0  0  0
   13.5055    3.9214    0.0000 C   0  0  0  0  0  0  0  0  0  0  0  0
    2.5981   16.9025    0.0000 C   0  0  0  0  0  0  0  0  0  0  0  0
    2.5981    6.9506    0.0000 C   0  0  0  0  0  0  0  0  0  0  0  0
    1.7320   16.4025    0.0000 C   0  0  0  0  0  0  0  0  0  0  0  0
    1.7320    6.4506    0.0000 C   0  0  0  0  0  0  0  0  0  0  0  0
    9.6922   10.5504    0.0000 C   0  0  0  0  0  0  0  0  0  0  0  0
    9.6922    0.5985    0.0000 C   0  0  0  0  0  0  0  0  0  0  0  0
    8.0125   13.0810    0.0000 H   0  0  0  0  0  0  0  0  0  0  0  0
    8.0125    3.1291    0.0000 H   0  0  0  0  0  0  0  0  0  0  0  0
    8.5635   13.3262    0.0000 H   0  0  0  0  0  0  0  0  0  0  0  0
    8.5635    3.3744    0.0000 H   0  0  0  0  0  0  0  0  0  0  0  0
    5.4516   14.0101    0.0000 H   0  0  0  0  0  0  0  0  0  0  0  0
    5.8501   13.3198    0.0000 H   0  0  0  0  0  0  0  0  0  0  0  0
    5.4516    4.0582    0.0000 H   0  0  0  0  0  0  0  0  0  0  0  0
    5.8501    3.3680    0.0000 H   0  0  0  0  0  0  0  0  0  0  0  0
    9.3465   12.5912    0.0000 H   0  0  0  0  0  0  0  0  0  0  0  0
    9.3465    2.6393    0.0000 H   0  0  0  0  0  0  0  0  0  0  0  0
    5.5947   15.8774    0.0000 H   0  0  0  0  0  0  0  0  0  0  0  0
    4.7976   15.8774    0.0000 H   0  0  0  0  0  0  0  0  0  0  0  0
    5.5947    5.9255    0.0000 H   0  0  0  0  0  0  0  0  0  0  0  0
    4.7976    5.9255    0.0000 H   0  0  0  0  0  0  0  0  0  0  0  0
   12.8889   11.7449    0.0000 H   0  0  0  0  0  0  0  0  0  0  0  0
   12.8889    1.7930    0.0000 H   0  0  0  0  0  0  0  0  0  0  0  0
    1.9781   13.9025    0.0000 H   0  0  0  0  0  0  0  0  0  0  0  0
    2.5981   13.2825    0.0000 H   0  0  0  0  0  0  0  0  0  0  0  0
    3.2181   13.9025    0.0000 H   0  0  0  0  0  0  0  0  0  0  0  0
    1.9781    3.9506    0.0000 H   0  0  0  0  0  0  0  0  0  0  0  0
    2.5981    3.3306    0.0000 H   0  0  0  0  0  0  0  0  0  0  0  0
    3.2181    3.9506    0.0000 H   0  0  0  0  0  0  0  0  0  0  0  0
    9.0937   10.7121    0.0000 H   0  0  0  0  0  0  0  0  0  0  0  0
    9.5305    9.9519    0.0000 H   0  0  0  0  0  0  0  0  0  0  0  0
   10.2908   10.3887    0.0000 H   0  0  0  0  0  0  0  0  0  0  0  0
    9.0937    0.7602    0.0000 H   0  0  0  0  0  0  0  0  0  0  0  0
    9.5305    0.0000    0.0000 H   0  0  0  0  0  0  0  0  0  0  0  0
   10.2907    0.4368    0.0000 H   0  0  0  0  0  0  0  0  0  0  0  0
   14.7486   14.5509    0.0000 H   0  0  0  0  0  0  0  0  0  0  0  0
   13.9154   15.2284    0.0000 H   0  0  0  0  0  0  0  0  0  0  0  0
   14.7486    4.5990    0.0000 H   0  0  0  0  0  0  0  0  0  0  0  0
   13.9154    5.2766    0.0000 H   0  0  0  0  0  0  0  0  0  0  0  0
   17.8238    4.0079    0.0000 H   0  0  0  0  0  0  0  0  0  0  0  0
   16.7499    4.0079    0.0000 H   0  0  0  0  0  0  0  0  0  0  0  0
   17.8238   16.5158    0.0000 H   0  0  0  0  0  0  0  0  0  0  0  0
   16.7499   16.5158    0.0000 H   0  0  0  0  0  0  0  0  0  0  0  0
   17.8238   14.0143    0.0000 H   0  0  0  0  0  0  0  0  0  0  0  0
   16.7499   14.0143    0.0000 H   0  0  0  0  0  0  0  0  0  0  0  0
   17.8238   11.5127    0.0000 H   0  0  0  0  0  0  0  0  0  0  0  0
   16.7499   11.5127    0.0000 H   0  0  0  0  0  0  0  0  0  0  0  0
   17.8238    9.0111    0.0000 H   0  0  0  0  0  0  0  0  0  0  0  0
   16.7499    9.0111    0.0000 H   0  0  0  0  0  0  0  0  0  0  0  0
   17.8238    6.5095    0.0000 H   0  0  0  0  0  0  0  0  0  0  0  0
   16.7499    6.5095    0.0000 H   0  0  0  0  0  0  0  0  0  0  0  0
   17.8238    1.5063    0.0000 H   0  0  0  0  0  0  0  0  0  0  0  0
   16.7499    1.5063    0.0000 H   0  0  0  0  0  0  0  0  0  0  0  0
  1 48  1  0  0  0  0
  1 58  1  0  0  0  0
  2 49  1  0  0  0  0
  2 59  1  0  0  0  0
  3 60  1  0  0  0  0
  3 68  1  0  0  0  0
  4 61  1  0  0  0  0
  4 69  1  0  0  0  0
  5 72  1  0  0  0  0
  5 76  1  0  0  0  0
  6 73  1  0  0  0  0
  6 77  1  0  0  0  0
 11 52  2  0  0  0  0
 12 53  2  0  0  0  0
 13 62  1  0  0  0  0
 14 63  1  0  0  0  0
 15 62  2  0  0  0  0
 16 63  2  0  0  0  0
 17 64  2  0  0  0  0
 18 65  2  0  0  0  0
 19 36  1  0  0  0  0
 19 82  1  0  0  0  0
 20 37  1  0  0  0  0
 20 83  1  0  0  0  0
 21 78  2  0  0  0  0
 22 79  2  0  0  0  0
 23 80  1  0  0  0  0
 24 81  1  0  0  0  0
 25116  1  0  0  0  0
 25117  1  0  0  0  0
 26118  1  0  0  0  0
 26119  1  0  0  0  0
 27120  1  0  0  0  0
 27121  1  0  0  0  0
 28122  1  0  0  0  0
 28123  1  0  0  0  0
 29124  1  0  0  0  0
 29125  1  0  0  0  0
 30126  1  0  0  0  0
 30127  1  0  0  0  0
 31128  1  0  0  0  0
 31129  1  0  0  0  0
 32 48  1  0  0  0  0
 32 52  1  0  0  0  0
 32 54  1  0  0  0  0
 33 49  1  0  0  0  0
 33 53  1  0  0  0  0
 33 55  1  0  0  0  0
 50 34  1  1  0  0  0
 34 64  1  0  0  0  0
 34 92  1  0  0  0  0
 51 35  1  1  0  0  0
 35 65  1  0  0  0  0
 35 93  1  0  0  0  0
 36 66  2  0  0  0  0
 37 67  2  0  0  0  0
 38 44  1  0  0  0  0
 38 68  1  0  0  0  0
 38 74  1  0  0  0  0
 39 45  1  0  0  0  0
 39 69  1  0  0  0  0
 39 75  1  0  0  0  0
 40 70  1  0  0  0  0
 40 76  2  0  0  0  0
 41 71  1  0  0  0  0
 41 77  2  0  0  0  0
 42 68  2  0  0  0  0
 42 78  1  0  0  0  0
 43 69  2  0  0  0  0
 43 79  1  0  0  0  0
 44 80  2  0  0  0  0
 45 81  2  0  0  0  0
 46 76  1  0  0  0  0
 46112  1  0  0  0  0
 46113  1  0  0  0  0
 47 77  1  0  0  0  0
 47114  1  0  0  0  0
 47115  1  0  0  0  0
 48 50  1  0  0  0  0
 48 84  1  6  0  0  0
 49 51  1  0  0  0  0
 49 85  1  6  0  0  0
 50 52  1  0  0  0  0
 50 86  1  0  0  0  0
 51 53  1  0  0  0  0
 51 87  1  0  0  0  0
 54 56  2  0  0  0  0
 54 62  1  0  0  0  0
 55 57  2  0  0  0  0
 55 63  1  0  0  0  0
 56 58  1  0  0  0  0
 56 60  1  0  0  0  0
 57 59  1  0  0  0  0
 57 61  1  0  0  0  0
 58 88  1  0  0  0  0
 58 89  1  0  0  0  0
 59 90  1  0  0  0  0
 59 91  1  0  0  0  0
 60 94  1  0  0  0  0
 60 95  1  0  0  0  0
 61 96  1  0  0  0  0
 61 97  1  0  0  0  0
 64 66  1  0  0  0  0
 65 67  1  0  0  0  0
 66 70  1  0  0  0  0
 67 71  1  0  0  0  0
 70 72  2  0  0  0  0
 71 73  2  0  0  0  0
 72 98  1  0  0  0  0
 73 99  1  0  0  0  0
 74100  1  0  0  0  0
 74101  1  0  0  0  0
 74102  1  0  0  0  0
 75103  1  0  0  0  0
 75104  1  0  0  0  0
 75105  1  0  0  0  0
 78 80  1  0  0  0  0
 79 81  1  0  0  0  0
 82106  1  0  0  0  0
 82107  1  0  0  0  0
 82108  1  0  0  0  0
 83109  1  0  0  0  0
 83110  1  0  0  0  0
 83111  1  0  0  0  0
M  CHG  8   7   1   8   1   9   1  10   1  13  -1  14  -1  23  -1  24  -1
M  END
> <PUBCHEM_COMPOUND_CID>
11953897

> <PUBCHEM_COMPOUND_CANONICALIZED>
1

> <PUBCHEM_CACTVS_COMPLEXITY>
1120

> <PUBCHEM_CACTVS_HBOND_ACCEPTOR>
35

> <PUBCHEM_CACTVS_HBOND_DONOR>
11

> <PUBCHEM_CACTVS_ROTATABLE_BOND>
14

> <PUBCHEM_CACTVS_SUBSKEYS>
AAADcfB//jBwAAAAAAAAAAAAAABYsWLAAAAgQIEAAAAQIAAB4AAAHgQcCAAADCjF1gajmRPYEAisAwXyfAIQ8KlhCjkBCJX4IFiCZJggxCEUEAAAHgKwASAAAAAAAAAAAAAAAAAAAAAAAAAAAAAAAAAAAA==

> <PUBCHEM_IUPAC_OPENEYE_NAME>
tetrasodium;(6R,7R)-7-[[(2Z)-2-(2-aminothiazol-4-yl)-2-methoxyimino-acetyl]amino]-3-[(2-methyl-6-oxido-5-oxo-1,2,4-triazin-3-yl)sulfanylmethyl]-8-oxo-5-thia-1-azabicyclo[4.2.0]oct-2-ene-2-carboxylate;heptahydrate

> <PUBCHEM_IUPAC_CAS_NAME>
tetrasodium;(6R,7R)-7-[[(2Z)-2-(2-amino-4-thiazolyl)-2-methoxyimino-1-oxoethyl]amino]-3-[[(2-methyl-6-oxido-5-oxo-1,2,4-triazin-3-yl)thio]methyl]-8-oxo-5-thia-1-azabicyclo[4.2.0]oct-2-ene-2-carboxylate;heptahydrate

> <PUBCHEM_IUPAC_NAME_MARKUP>
tetrasodium;(6<I>R</I>,7<I>R</I>)-7-[[(2<I>Z</I>)-2-(2-amino-1,3-thiazol-4-yl)-2-methoxyiminoacetyl]amino]-3-[(2-methyl-6-oxido-5-oxo-1,2,4-triazin-3-yl)sulfanylmethyl]-8-oxo-5-thia-1-azabicyclo[4.2.0]oct-2-ene-2-carboxylate;heptahydrate

> <PUBCHEM_IUPAC_NAME>
tetrasodium;(6R,7R)-7-[[(2Z)-2-(2-amino-1,3-thiazol-4-yl)-2-methoxyiminoacetyl]amino]-3-[(2-methyl-6-oxido-5-oxo-1,2,4-triazin-3-yl)sulfanylmethyl]-8-oxo-5-thia-1-azabicyclo[4.2.0]oct-2-ene-2-carboxylate;heptahydrate

> <PUBCHEM_IUPAC_SYSTEMATIC_NAME>
tetrasodium;(6R,7R)-7-[[(2Z)-2-(2-azanyl-1,3-thiazol-4-yl)-2-methoxyimino-ethanoyl]amino]-3-[(2-methyl-6-oxidanidyl-5-oxidanylidene-1,2,4-triazin-3-yl)sulfanylmethyl]-8-oxidanylidene-5-thia-1-azabicyclo[4.2.0]oct-2-ene-2-carboxylate;heptahydrate

> <PUBCHEM_IUPAC_TRADITIONAL_NAME>
tetrasodium;(6R,7R)-7-[[(2Z)-2-(2-aminothiazol-4-yl)-2-methyloximino-acetyl]amino]-8-keto-3-[[(5-keto-2-methyl-6-oxido-1,2,4-triazin-3-yl)thio]methyl]-5-thia-1-azabicyclo[4.2.0]oct-2-ene-2-carboxylate;heptahydrate

> <PUBCHEM_IUPAC_INCHI>
InChI=1S/2C18H18N8O7S3.4Na.7H2O/c2*1-25-18(22-12(28)13(29)23-25)36-4-6-3-34-15-9(14(30)26(15)10(6)16(31)32)21-11(27)8(24-33-2)7-5-35-17(19)20-7;;;;;;;;;;;/h2*5,9,15H,3-4H2,1-2H3,(H2,19,20)(H,21,27)(H,23,29)(H,31,32);;;;;7*1H2/q;;4*+1;;;;;;;/p-4/b2*24-8-;;;;;;;;;;;/t2*9-,15-;;;;;;;;;;;/m11.........../s1

> <PUBCHEM_IUPAC_INCHIKEY>
KTAVBOYXMBQFGR-MAODNAKNSA-J

> <PUBCHEM_EXACT_MASS>
1322.093847

> <PUBCHEM_MOLECULAR_FORMULA>
C36H46N16Na4O21S6

> <PUBCHEM_MOLECULAR_WEIGHT>
1323.2

> <PUBCHEM_OPENEYE_CAN_SMILES>
CN1C(=NC(=O)C(=N1)[O-])SCC2=C(N3C(C(C3=O)NC(=O)C(=NOC)C4=CSC(=N4)N)SC2)C(=O)[O-].CN1C(=NC(=O)C(=N1)[O-])SCC2=C(N3C(C(C3=O)NC(=O)C(=NOC)C4=CSC(=N4)N)SC2)C(=O)[O-].O.O.O.O.O.O.O.[Na+].[Na+].[Na+].[Na+]

> <PUBCHEM_OPENEYE_ISO_SMILES>
CN1N=C(C(=O)N=C1SCC2=C(N3C(=O)[C@H]([C@H]3SC2)NC(=O)/C(=N\OC)/C4=CSC(=N4)N)C(=O)[O-])[O-].CN1N=C(C(=O)N=C1SCC2=C(N3C(=O)[C@H]([C@H]3SC2)NC(=O)/C(=N\OC)/C4=CSC(=N4)N)C(=O)[O-])[O-].O.O.O.O.O.O.O.[Na+].[Na+].[Na+].[Na+]

> <PUBCHEM_CACTVS_TPSA>
601

> <PUBCHEM_MONOISOTOPIC_WEIGHT>
1322.093847

> <PUBCHEM_TOTAL_CHARGE>
0

> <PUBCHEM_HEAVY_ATOM_COUNT>
83

> <PUBCHEM_ATOM_DEF_STEREO_COUNT>
4

> <PUBCHEM_ATOM_UDEF_STEREO_COUNT>
0

> <PUBCHEM_BOND_DEF_STEREO_COUNT>
2

> <PUBCHEM_BOND_UDEF_STEREO_COUNT>
0

> <PUBCHEM_ISOTOPIC_ATOM_COUNT>
0

> <PUBCHEM_COMPONENT_COUNT>
13

> <PUBCHEM_CACTVS_TAUTO_COUNT>
-1

> <PUBCHEM_COORDINATE_TYPE>
1
5
255

> <PUBCHEM_BONDANNOTATIONS>
50  34  5
51  35  5
38  44  8
38  68  8
39  45  8
39  69  8
40  70  8
40  76  8
41  71  8
41  77  8
42  68  8
42  78  8
43  69  8
43  79  8
44  80  8
45  81  8
48  84  6
49  85  6
5  72  8
5  76  8
6  73  8
6  77  8
70  72  8
71  73  8
78  80  8
79  81  8

$$$$
