11979606
  -OEChem-05242006132D

192198  0     1  0  0  0  0  0999 V2000
    7.5127    4.0267    0.0000 S   0  0  0  0  0  0  0  0  0  0  0  0
   11.1459    5.4176    0.0000 S   0  0  0  0  0  0  0  0  0  0  0  0
    6.8649   18.3600    0.0000 O   0  0  0  0  0  0  0  0  0  0  0  0
    5.1328   21.3600    0.0000 O   0  0  0  0  0  0  0  0  0  0  0  0
    1.4030    5.6200    0.0000 O   0  0  0  0  0  0  0  0  0  0  0  0
    8.5970   22.3600    0.0000 O   0  0  0  0  0  0  0  0  0  0  0  0
    7.7309   17.8600    0.0000 O   0  0  0  0  0  0  0  0  0  0  0  0
    4.8671    5.6200    0.0000 O   0  0  0  0  0  0  0  0  0  0  0  0
    9.4630   16.8600    0.0000 O   0  0  0  0  0  0  0  0  0  0  0  0
    4.8671    3.6200    0.0000 O   0  0  0  0  0  0  0  0  0  0  0  0
    4.0010    5.1200    0.0000 O   0  0  0  0  0  0  0  0  0  0  0  0
    7.4651    8.1200    0.0000 O   0  0  0  0  0  0  0  0  0  0  0  0
    6.8649   22.3600    0.0000 N   0  0  0  0  0  0  0  0  0  0  0  0
    5.9989   19.8600    0.0000 N   0  0  0  0  0  0  0  0  0  0  0  0
    6.8649   16.3600    0.0000 N   0  0  0  0  0  0  0  0  0  0  0  0
    7.7309   23.8600    0.0000 N   0  0  0  0  0  0  0  0  0  0  0  0
    4.0010    7.1200    0.0000 N   0  0  0  0  0  0  0  0  0  0  0  0
    3.1350    3.6200    0.0000 N   0  0  0  0  0  0  0  0  0  0  0  0
    6.5991    6.6200    0.0000 N   0  0  0  0  0  0  0  0  0  0  0  0
    8.3312    6.6200    0.0000 N   0  0  0  0  0  0  0  0  0  0  0  0
   10.9768    7.0267    0.0000 N   0  0  0  0  0  0  0  0  0  0  0  0
    7.6818    2.4176    0.0000 N   0  0  0  0  0  0  0  0  0  0  0  0
    6.8649   21.3600    0.0000 C   0  0  1  0  0  0  0  0  0  0  0  0
    5.1328   19.3600    0.0000 C   0  0  2  0  0  0  0  0  0  0  0  0
    5.1328   18.3600    0.0000 C   0  0  0  0  0  0  0  0  0  0  0  0
    5.9989   17.8600    0.0000 C   0  0  1  0  0  0  0  0  0  0  0  0
    7.7309   20.8600    0.0000 C   0  0  0  0  0  0  0  0  0  0  0  0
    5.9989   16.8600    0.0000 C   0  0  2  0  0  0  0  0  0  0  0  0
    5.9989   20.8600    0.0000 C   0  0  0  0  0  0  0  0  0  0  0  0
    4.2668   19.8600    0.0000 C   0  0  0  0  0  0  0  0  0  0  0  0
    5.9989   22.8600    0.0000 C   0  0  0  0  0  0  0  0  0  0  0  0
    5.9989   23.8600    0.0000 C   0  0  0  0  0  0  0  0  0  0  0  0
    5.1328   16.3600    0.0000 C   0  0  0  0  0  0  0  0  0  0  0  0
    7.7309   22.8600    0.0000 C   0  0  0  0  0  0  0  0  0  0  0  0
    7.7309   19.8600    0.0000 C   0  0  0  0  0  0  0  0  0  0  0  0
    8.5970   21.3600    0.0000 C   0  0  0  0  0  0  0  0  0  0  0  0
    6.8649   24.3600    0.0000 C   0  0  0  0  0  0  0  0  0  0  0  0
    3.1350    6.6200    0.0000 C   0  0  2  0  0  0  0  0  0  0  0  0
    3.1350    5.6200    0.0000 C   0  0  0  0  0  0  0  0  0  0  0  0
    2.2690    5.1200    0.0000 C   0  0  1  0  0  0  0  0  0  0  0  0
    3.4008   19.3600    0.0000 C   0  0  0  0  0  0  0  0  0  0  0  0
    2.2690    4.1200    0.0000 C   0  0  2  0  0  0  0  0  0  0  0  0
    2.2690    7.1200    0.0000 C   0  0  0  0  0  0  0  0  0  0  0  0
    5.1328   15.3600    0.0000 C   0  0  0  0  0  0  0  0  0  0  0  0
    1.4030    3.6200    0.0000 C   0  0  0  0  0  0  0  0  0  0  0  0
    5.7331    7.1200    0.0000 C   0  0  2  0  0  0  0  0  0  0  0  0
    2.5348   19.8600    0.0000 C   0  0  0  0  0  0  0  0  0  0  0  0
    3.4008   18.3600    0.0000 C   0  0  0  0  0  0  0  0  0  0  0  0
    7.7309   16.8600    0.0000 C   0  0  0  0  0  0  0  0  0  0  0  0
    4.8671    6.6200    0.0000 C   0  0  0  0  0  0  0  0  0  0  0  0
    5.7331    8.1200    0.0000 C   0  0  0  0  0  0  0  0  0  0  0  0
    2.2690    8.1200    0.0000 C   0  0  0  0  0  0  0  0  0  0  0  0
    1.4030    2.6200    0.0000 C   0  0  0  0  0  0  0  0  0  0  0  0
    4.2668   14.8600    0.0000 C   0  0  0  0  0  0  0  0  0  0  0  0
    5.9989   14.8600    0.0000 C   0  0  0  0  0  0  0  0  0  0  0  0
    1.6687   19.3600    0.0000 C   0  0  0  0  0  0  0  0  0  0  0  0
    2.5348   17.8600    0.0000 C   0  0  0  0  0  0  0  0  0  0  0  0
    8.5970   16.3600    0.0000 C   0  0  0  0  0  0  0  0  0  0  0  0
    6.5991    8.6200    0.0000 C   0  0  0  0  0  0  0  0  0  0  0  0
    4.8671    8.6200    0.0000 C   0  0  0  0  0  0  0  0  0  0  0  0
    1.6687   18.3600    0.0000 C   0  0  0  0  0  0  0  0  0  0  0  0
    3.1350    8.6200    0.0000 C   0  0  0  0  0  0  0  0  0  0  0  0
    1.4030    8.6200    0.0000 C   0  0  0  0  0  0  0  0  0  0  0  0
    4.2668   13.8600    0.0000 C   0  0  0  0  0  0  0  0  0  0  0  0
    5.9989   13.8600    0.0000 C   0  0  0  0  0  0  0  0  0  0  0  0
    4.0010    4.1200    0.0000 C   0  0  0  0  0  0  0  0  0  0  0  0
    0.5369    2.1200    0.0000 C   0  0  0  0  0  0  0  0  0  0  0  0
    2.2690    2.1200    0.0000 C   0  0  0  0  0  0  0  0  0  0  0  0
    5.1328   13.3600    0.0000 C   0  0  0  0  0  0  0  0  0  0  0  0
    7.4651    7.1200    0.0000 C   0  0  0  0  0  0  0  0  0  0  0  0
    3.1350    9.6200    0.0000 C   0  0  0  0  0  0  0  0  0  0  0  0
    1.4030    9.6200    0.0000 C   0  0  0  0  0  0  0  0  0  0  0  0
    0.5369    1.1200    0.0000 C   0  0  0  0  0  0  0  0  0  0  0  0
    2.2690    1.1200    0.0000 C   0  0  0  0  0  0  0  0  0  0  0  0
    2.2690   10.1200    0.0000 C   0  0  0  0  0  0  0  0  0  0  0  0
    1.4030    0.6200    0.0000 C   0  0  0  0  0  0  0  0  0  0  0  0
   10.3290   16.3600    0.0000 C   0  0  0  0  0  0  0  0  0  0  0  0
    9.1972    7.1200    0.0000 C   0  0  0  0  0  0  0  0  0  0  0  0
    5.7331    4.1200    0.0000 C   0  0  0  0  0  0  0  0  0  0  0  0
    8.3312    5.6200    0.0000 C   0  0  0  0  0  0  0  0  0  0  0  0
   11.1950   16.8600    0.0000 C   0  0  0  0  0  0  0  0  0  0  0  0
   10.3290   15.3600    0.0000 C   0  0  0  0  0  0  0  0  0  0  0  0
   10.0632    6.6200    0.0000 C   0  0  0  0  0  0  0  0  0  0  0  0
    6.5991    3.6200    0.0000 C   0  0  0  0  0  0  0  0  0  0  0  0
   12.0610   16.3600    0.0000 C   0  0  0  0  0  0  0  0  0  0  0  0
   11.1950   14.8600    0.0000 C   0  0  0  0  0  0  0  0  0  0  0  0
   11.1950   17.8600    0.0000 C   0  0  0  0  0  0  0  0  0  0  0  0
    9.4630   14.8600    0.0000 C   0  0  0  0  0  0  0  0  0  0  0  0
   12.0610   15.3600    0.0000 C   0  0  0  0  0  0  0  0  0  0  0  0
   10.1677    5.6255    0.0000 C   0  0  0  0  0  0  0  0  0  0  0  0
   11.6459    6.2836    0.0000 C   0  0  0  0  0  0  0  0  0  0  0  0
    6.7036    2.6255    0.0000 C   0  0  0  0  0  0  0  0  0  0  0  0
   12.6404    6.3881    0.0000 C   0  0  0  0  0  0  0  0  0  0  0  0
    8.1818    3.2836    0.0000 C   0  0  0  0  0  0  0  0  0  0  0  0
   13.2282    5.5791    0.0000 C   0  0  0  0  0  0  0  0  0  0  0  0
   13.0471    7.3017    0.0000 C   0  0  0  0  0  0  0  0  0  0  0  0
    6.3280   21.6700    0.0000 H   0  0  0  0  0  0  0  0  0  0  0  0
    5.6698   19.0500    0.0000 H   0  0  0  0  0  0  0  0  0  0  0  0
    4.5223   18.4677    0.0000 H   0  0  0  0  0  0  0  0  0  0  0  0
    4.9208   17.7774    0.0000 H   0  0  0  0  0  0  0  0  0  0  0  0
    6.5358   17.5500    0.0000 H   0  0  0  0  0  0  0  0  0  0  0  0
    7.7309   21.4800    0.0000 H   0  0  0  0  0  0  0  0  0  0  0  0
    5.9989   16.2400    0.0000 H   0  0  0  0  0  0  0  0  0  0  0  0
    6.5358   19.5500    0.0000 H   0  0  0  0  0  0  0  0  0  0  0  0
    4.6654   20.3349    0.0000 H   0  0  0  0  0  0  0  0  0  0  0  0
    3.8683   20.3349    0.0000 H   0  0  0  0  0  0  0  0  0  0  0  0
    5.3883   22.9677    0.0000 H   0  0  0  0  0  0  0  0  0  0  0  0
    5.7868   22.2774    0.0000 H   0  0  0  0  0  0  0  0  0  0  0  0
    5.7868   24.4426    0.0000 H   0  0  0  0  0  0  0  0  0  0  0  0
    5.3883   23.7523    0.0000 H   0  0  0  0  0  0  0  0  0  0  0  0
    4.9208   16.9426    0.0000 H   0  0  0  0  0  0  0  0  0  0  0  0
    4.5223   16.2523    0.0000 H   0  0  0  0  0  0  0  0  0  0  0  0
    7.1109   19.8600    0.0000 H   0  0  0  0  0  0  0  0  0  0  0  0
    7.7309   19.2400    0.0000 H   0  0  0  0  0  0  0  0  0  0  0  0
    8.3509   19.8600    0.0000 H   0  0  0  0  0  0  0  0  0  0  0  0
    8.9070   20.8231    0.0000 H   0  0  0  0  0  0  0  0  0  0  0  0
    9.1339   21.6700    0.0000 H   0  0  0  0  0  0  0  0  0  0  0  0
    8.2869   21.8969    0.0000 H   0  0  0  0  0  0  0  0  0  0  0  0
    7.2634   24.8349    0.0000 H   0  0  0  0  0  0  0  0  0  0  0  0
    6.4664   24.8349    0.0000 H   0  0  0  0  0  0  0  0  0  0  0  0
    3.1350    7.2400    0.0000 H   0  0  0  0  0  0  0  0  0  0  0  0
    3.3471    5.0374    0.0000 H   0  0  0  0  0  0  0  0  0  0  0  0
    3.7456    5.7277    0.0000 H   0  0  0  0  0  0  0  0  0  0  0  0
    2.2690    5.7400    0.0000 H   0  0  0  0  0  0  0  0  0  0  0  0
    2.2690    3.5000    0.0000 H   0  0  0  0  0  0  0  0  0  0  0  0
    6.8649   15.7400    0.0000 H   0  0  0  0  0  0  0  0  0  0  0  0
    8.2679   24.1700    0.0000 H   0  0  0  0  0  0  0  0  0  0  0  0
    6.8649   18.9800    0.0000 H   0  0  0  0  0  0  0  0  0  0  0  0
    1.6584    7.2277    0.0000 H   0  0  0  0  0  0  0  0  0  0  0  0
    2.0569    6.5374    0.0000 H   0  0  0  0  0  0  0  0  0  0  0  0
    1.1909    4.2026    0.0000 H   0  0  0  0  0  0  0  0  0  0  0  0
    0.7924    3.5123    0.0000 H   0  0  0  0  0  0  0  0  0  0  0  0
    4.0010    7.7400    0.0000 H   0  0  0  0  0  0  0  0  0  0  0  0
    6.2700    7.4300    0.0000 H   0  0  0  0  0  0  0  0  0  0  0  0
    2.5348   20.4800    0.0000 H   0  0  0  0  0  0  0  0  0  0  0  0
    3.9377   18.0500    0.0000 H   0  0  0  0  0  0  0  0  0  0  0  0
    3.1350    3.0000    0.0000 H   0  0  0  0  0  0  0  0  0  0  0  0
    5.1962    7.8100    0.0000 H   0  0  0  0  0  0  0  0  0  0  0  0
    3.7299   15.1700    0.0000 H   0  0  0  0  0  0  0  0  0  0  0  0
    6.5358   15.1700    0.0000 H   0  0  0  0  0  0  0  0  0  0  0  0
    1.4030    6.2400    0.0000 H   0  0  0  0  0  0  0  0  0  0  0  0
    1.1318   19.6700    0.0000 H   0  0  0  0  0  0  0  0  0  0  0  0
    2.5348   17.2400    0.0000 H   0  0  0  0  0  0  0  0  0  0  0  0
    8.1984   15.8851    0.0000 H   0  0  0  0  0  0  0  0  0  0  0  0
    8.9955   15.8851    0.0000 H   0  0  0  0  0  0  0  0  0  0  0  0
    6.5991    6.0000    0.0000 H   0  0  0  0  0  0  0  0  0  0  0  0
    6.9091    8.0831    0.0000 H   0  0  0  0  0  0  0  0  0  0  0  0
    7.1360    8.9300    0.0000 H   0  0  0  0  0  0  0  0  0  0  0  0
    6.2891    9.1569    0.0000 H   0  0  0  0  0  0  0  0  0  0  0  0
    5.1771    9.1569    0.0000 H   0  0  0  0  0  0  0  0  0  0  0  0
    4.3301    8.9300    0.0000 H   0  0  0  0  0  0  0  0  0  0  0  0
    4.5571    8.0831    0.0000 H   0  0  0  0  0  0  0  0  0  0  0  0
    1.1318   18.0500    0.0000 H   0  0  0  0  0  0  0  0  0  0  0  0
    3.6720    8.3100    0.0000 H   0  0  0  0  0  0  0  0  0  0  0  0
    0.8660    8.3100    0.0000 H   0  0  0  0  0  0  0  0  0  0  0  0
    3.7299   13.5500    0.0000 H   0  0  0  0  0  0  0  0  0  0  0  0
    6.5358   13.5500    0.0000 H   0  0  0  0  0  0  0  0  0  0  0  0
    0.0000    2.4300    0.0000 H   0  0  0  0  0  0  0  0  0  0  0  0
    2.8059    2.4300    0.0000 H   0  0  0  0  0  0  0  0  0  0  0  0
    5.1328   12.7400    0.0000 H   0  0  0  0  0  0  0  0  0  0  0  0
    3.6720    9.9300    0.0000 H   0  0  0  0  0  0  0  0  0  0  0  0
    0.8660    9.9300    0.0000 H   0  0  0  0  0  0  0  0  0  0  0  0
    0.0000    0.8100    0.0000 H   0  0  0  0  0  0  0  0  0  0  0  0
    2.8059    0.8100    0.0000 H   0  0  0  0  0  0  0  0  0  0  0  0
    2.2690   10.7400    0.0000 H   0  0  0  0  0  0  0  0  0  0  0  0
    1.4030    0.0000    0.0000 H   0  0  0  0  0  0  0  0  0  0  0  0
    9.5957    7.5950    0.0000 H   0  0  0  0  0  0  0  0  0  0  0  0
    8.7987    7.5950    0.0000 H   0  0  0  0  0  0  0  0  0  0  0  0
    6.1316    4.5950    0.0000 H   0  0  0  0  0  0  0  0  0  0  0  0
    5.3346    4.5950    0.0000 H   0  0  0  0  0  0  0  0  0  0  0  0
    7.7112    5.6200    0.0000 H   0  0  0  0  0  0  0  0  0  0  0  0
    8.3312    5.0000    0.0000 H   0  0  0  0  0  0  0  0  0  0  0  0
    8.9512    5.6200    0.0000 H   0  0  0  0  0  0  0  0  0  0  0  0
   12.5980   16.6700    0.0000 H   0  0  0  0  0  0  0  0  0  0  0  0
   11.1950   14.2400    0.0000 H   0  0  0  0  0  0  0  0  0  0  0  0
   11.8150   17.8600    0.0000 H   0  0  0  0  0  0  0  0  0  0  0  0
   11.1950   18.4800    0.0000 H   0  0  0  0  0  0  0  0  0  0  0  0
   10.5750   17.8600    0.0000 H   0  0  0  0  0  0  0  0  0  0  0  0
    9.1530   15.3969    0.0000 H   0  0  0  0  0  0  0  0  0  0  0  0
    8.9260   14.5500    0.0000 H   0  0  0  0  0  0  0  0  0  0  0  0
    9.7730   14.3231    0.0000 H   0  0  0  0  0  0  0  0  0  0  0  0
   12.5980   15.0500    0.0000 H   0  0  0  0  0  0  0  0  0  0  0  0
    9.7070    5.2106    0.0000 H   0  0  0  0  0  0  0  0  0  0  0  0
    6.2429    2.2106    0.0000 H   0  0  0  0  0  0  0  0  0  0  0  0
   13.2570    6.4529    0.0000 H   0  0  0  0  0  0  0  0  0  0  0  0
    8.7984    3.3484    0.0000 H   0  0  0  0  0  0  0  0  0  0  0  0
   12.7266    5.2147    0.0000 H   0  0  0  0  0  0  0  0  0  0  0  0
   13.5926    5.0775    0.0000 H   0  0  0  0  0  0  0  0  0  0  0  0
   13.7298    5.9435    0.0000 H   0  0  0  0  0  0  0  0  0  0  0  0
   13.6135    7.0495    0.0000 H   0  0  0  0  0  0  0  0  0  0  0  0
   13.2993    7.8681    0.0000 H   0  0  0  0  0  0  0  0  0  0  0  0
   12.4808    7.5538    0.0000 H   0  0  0  0  0  0  0  0  0  0  0  0
  1 84  1  0  0  0  0
  1 94  1  0  0  0  0
  2 90  1  0  0  0  0
  2 91  1  0  0  0  0
 26  3  1  6  0  0  0
  3128  1  0  0  0  0
  4 29  2  0  0  0  0
 40  5  1  1  0  0  0
  5141  1  0  0  0  0
  6 34  2  0  0  0  0
  7 49  2  0  0  0  0
  8 50  2  0  0  0  0
  9 58  1  0  0  0  0
  9 77  1  0  0  0  0
 10 66  1  0  0  0  0
 10 79  1  0  0  0  0
 11 66  2  0  0  0  0
 12 70  2  0  0  0  0
 13 23  1  0  0  0  0
 13 31  1  0  0  0  0
 13 34  1  0  0  0  0
 24 14  1  6  0  0  0
 14 29  1  0  0  0  0
 14104  1  0  0  0  0
 28 15  1  1  0  0  0
 15 49  1  0  0  0  0
 15126  1  0  0  0  0
 16 34  1  0  0  0  0
 16 37  1  0  0  0  0
 16127  1  0  0  0  0
 38 17  1  6  0  0  0
 17 50  1  0  0  0  0
 17133  1  0  0  0  0
 42 18  1  1  0  0  0
 18 66  1  0  0  0  0
 18137  1  0  0  0  0
 46 19  1  6  0  0  0
 19 70  1  0  0  0  0
 19146  1  0  0  0  0
 20 70  1  0  0  0  0
 20 78  1  0  0  0  0
 20 80  1  0  0  0  0
 21 83  1  0  0  0  0
 21 91  2  0  0  0  0
 22 92  1  0  0  0  0
 22 94  2  0  0  0  0
 23 27  1  0  0  0  0
 23 29  1  1  0  0  0
 23 97  1  0  0  0  0
 24 25  1  0  0  0  0
 24 30  1  0  0  0  0
 24 98  1  0  0  0  0
 25 26  1  0  0  0  0
 25 99  1  0  0  0  0
 25100  1  0  0  0  0
 26 28  1  0  0  0  0
 26101  1  0  0  0  0
 27 35  1  0  0  0  0
 27 36  1  0  0  0  0
 27102  1  0  0  0  0
 28 33  1  0  0  0  0
 28103  1  0  0  0  0
 30 41  1  0  0  0  0
 30105  1  0  0  0  0
 30106  1  0  0  0  0
 31 32  1  0  0  0  0
 31107  1  0  0  0  0
 31108  1  0  0  0  0
 32 37  1  0  0  0  0
 32109  1  0  0  0  0
 32110  1  0  0  0  0
 33 44  1  0  0  0  0
 33111  1  0  0  0  0
 33112  1  0  0  0  0
 35113  1  0  0  0  0
 35114  1  0  0  0  0
 35115  1  0  0  0  0
 36116  1  0  0  0  0
 36117  1  0  0  0  0
 36118  1  0  0  0  0
 37119  1  0  0  0  0
 37120  1  0  0  0  0
 38 39  1  0  0  0  0
 38 43  1  0  0  0  0
 38121  1  0  0  0  0
 39 40  1  0  0  0  0
 39122  1  0  0  0  0
 39123  1  0  0  0  0
 40 42  1  0  0  0  0
 40124  1  0  0  0  0
 41 47  2  0  0  0  0
 41 48  1  0  0  0  0
 42 45  1  0  0  0  0
 42125  1  0  0  0  0
 43 52  1  0  0  0  0
 43129  1  0  0  0  0
 43130  1  0  0  0  0
 44 54  2  0  0  0  0
 44 55  1  0  0  0  0
 45 53  1  0  0  0  0
 45131  1  0  0  0  0
 45132  1  0  0  0  0
 46 50  1  0  0  0  0
 46 51  1  0  0  0  0
 46134  1  0  0  0  0
 47 56  1  0  0  0  0
 47135  1  0  0  0  0
 48 57  2  0  0  0  0
 48136  1  0  0  0  0
 49 58  1  0  0  0  0
 51 59  1  0  0  0  0
 51 60  1  0  0  0  0
 51138  1  0  0  0  0
 52 62  2  0  0  0  0
 52 63  1  0  0  0  0
 53 67  2  0  0  0  0
 53 68  1  0  0  0  0
 54 64  1  0  0  0  0
 54139  1  0  0  0  0
 55 65  2  0  0  0  0
 55140  1  0  0  0  0
 56 61  2  0  0  0  0
 56142  1  0  0  0  0
 57 61  1  0  0  0  0
 57143  1  0  0  0  0
 58144  1  0  0  0  0
 58145  1  0  0  0  0
 59147  1  0  0  0  0
 59148  1  0  0  0  0
 59149  1  0  0  0  0
 60150  1  0  0  0  0
 60151  1  0  0  0  0
 60152  1  0  0  0  0
 61153  1  0  0  0  0
 62 71  1  0  0  0  0
 62154  1  0  0  0  0
 63 72  2  0  0  0  0
 63155  1  0  0  0  0
 64 69  2  0  0  0  0
 64156  1  0  0  0  0
 65 69  1  0  0  0  0
 65157  1  0  0  0  0
 67 73  1  0  0  0  0
 67158  1  0  0  0  0
 68 74  2  0  0  0  0
 68159  1  0  0  0  0
 69160  1  0  0  0  0
 71 75  2  0  0  0  0
 71161  1  0  0  0  0
 72 75  1  0  0  0  0
 72162  1  0  0  0  0
 73 76  2  0  0  0  0
 73163  1  0  0  0  0
 74 76  1  0  0  0  0
 74164  1  0  0  0  0
 75165  1  0  0  0  0
 76166  1  0  0  0  0
 77 81  2  0  0  0  0
 77 82  1  0  0  0  0
 78 83  1  0  0  0  0
 78167  1  0  0  0  0
 78168  1  0  0  0  0
 79 84  1  0  0  0  0
 79169  1  0  0  0  0
 79170  1  0  0  0  0
 80171  1  0  0  0  0
 80172  1  0  0  0  0
 80173  1  0  0  0  0
 81 85  1  0  0  0  0
 81 87  1  0  0  0  0
 82 86  2  0  0  0  0
 82 88  1  0  0  0  0
 83 90  2  0  0  0  0
 84 92  2  0  0  0  0
 85 89  2  0  0  0  0
 85174  1  0  0  0  0
 86 89  1  0  0  0  0
 86175  1  0  0  0  0
 87176  1  0  0  0  0
 87177  1  0  0  0  0
 87178  1  0  0  0  0
 88179  1  0  0  0  0
 88180  1  0  0  0  0
 88181  1  0  0  0  0
 89182  1  0  0  0  0
 90183  1  0  0  0  0
 91 93  1  0  0  0  0
 92184  1  0  0  0  0
 93 95  1  0  0  0  0
 93 96  1  0  0  0  0
 93185  1  0  0  0  0
 94186  1  0  0  0  0
 95187  1  0  0  0  0
 95188  1  0  0  0  0
 95189  1  0  0  0  0
 96190  1  0  0  0  0
 96191  1  0  0  0  0
 96192  1  0  0  0  0
M  END
> <PUBCHEM_COMPOUND_CID>
11979606

> <PUBCHEM_COMPOUND_CANONICALIZED>
1

> <PUBCHEM_CACTVS_COMPLEXITY>
1980

> <PUBCHEM_CACTVS_HBOND_ACCEPTOR>
14

> <PUBCHEM_CACTVS_HBOND_DONOR>
8

> <PUBCHEM_CACTVS_ROTATABLE_BOND>
33

> <PUBCHEM_CACTVS_SUBSKEYS>
AAADcfB//ABgAAAAAAAAAAAAAAAAAWLAAAA8YMGDAAAAAAAB9AAAHgQQCAAADTzl3ga/j5PIFgisAzV3XAKC+KBxKjhI2J38bImOdjLk8T+feCiu1hP4qAeQwPAOAAACAAAIAAAAAAQAABAAAAAAAAAAAA==

> <PUBCHEM_IUPAC_OPENEYE_NAME>
(2S)-N-[(1S,3S,4S)-1-benzyl-4-[[2-(2,6-dimethylphenoxy)acetyl]amino]-3-hydroxy-5-phenyl-pentyl]-3-methyl-2-(2-oxohexahydropyrimidin-1-yl)butanamide;thiazol-5-ylmethyl N-[(1S,2S,4S)-1-benzyl-2-hydroxy-4-[[(2S)-2-[[(2-isopropylthiazol-4-yl)methyl-methyl-carbamoyl]amino]-3-methyl-butanoyl]amino]-5-phenyl-pentyl]carbamate

> <PUBCHEM_IUPAC_CAS_NAME>
(2S)-N-[(2S,4S,5S)-5-[[2-(2,6-dimethylphenoxy)-1-oxoethyl]amino]-4-hydroxy-1,6-diphenylhexan-2-yl]-3-methyl-2-(2-oxo-1,3-diazinan-1-yl)butanamide;N-[(2S,3S,5S)-3-hydroxy-5-[[(2S)-3-methyl-2-[[[methyl-[(2-propan-2-yl-4-thiazolyl)methyl]amino]-oxomethyl]amino]-1-oxobutyl]amino]-1,6-diphenylhexan-2-yl]carbamic acid 5-thiazolylmethyl ester

> <PUBCHEM_IUPAC_NAME_MARKUP>
(2<I>S</I>)-<I>N</I>-[(2<I>S</I>,4<I>S</I>,5<I>S</I>)-5-[[2-(2,6-dimethylphenoxy)acetyl]amino]-4-hydroxy-1,6-diphenylhexan-2-yl]-3-methyl-2-(2-oxo-1,3-diazinan-1-yl)butanamide;1,3-thiazol-5-ylmethyl <I>N</I>-[(2<I>S</I>,3<I>S</I>,5<I>S</I>)-3-hydroxy-5-[[(2<I>S</I>)-3-methyl-2-[[methyl-[(2-propan-2-yl-1,3-thiazol-4-yl)methyl]carbamoyl]amino]butanoyl]amino]-1,6-diphenylhexan-2-yl]carbamate

> <PUBCHEM_IUPAC_NAME>
(2S)-N-[(2S,4S,5S)-5-[[2-(2,6-dimethylphenoxy)acetyl]amino]-4-hydroxy-1,6-diphenylhexan-2-yl]-3-methyl-2-(2-oxo-1,3-diazinan-1-yl)butanamide;1,3-thiazol-5-ylmethyl N-[(2S,3S,5S)-3-hydroxy-5-[[(2S)-3-methyl-2-[[methyl-[(2-propan-2-yl-1,3-thiazol-4-yl)methyl]carbamoyl]amino]butanoyl]amino]-1,6-diphenylhexan-2-yl]carbamate

> <PUBCHEM_IUPAC_SYSTEMATIC_NAME>
(2S)-N-[(2S,4S,5S)-5-[2-(2,6-dimethylphenoxy)ethanoylamino]-4-oxidanyl-1,6-diphenyl-hexan-2-yl]-3-methyl-2-(2-oxidanylidene-1,3-diazinan-1-yl)butanamide;1,3-thiazol-5-ylmethyl N-[(2S,3S,5S)-5-[[(2S)-3-methyl-2-[[methyl-[(2-propan-2-yl-1,3-thiazol-4-yl)methyl]carbamoyl]amino]butanoyl]amino]-3-oxidanyl-1,6-diphenyl-hexan-2-yl]carbamate

> <PUBCHEM_IUPAC_TRADITIONAL_NAME>
(2S)-N-[(1S,3S,4S)-1-benzyl-4-[[2-(2,6-dimethylphenoxy)acetyl]amino]-3-hydroxy-5-phenyl-pentyl]-2-(2-ketohexahydropyrimidin-1-yl)-3-methyl-butyramide;N-[(1S,2S,4S)-1-benzyl-2-hydroxy-4-[[(2S)-2-[[(2-isopropylthiazol-4-yl)methyl-methyl-carbamoyl]amino]-3-methyl-butanoyl]amino]-5-phenyl-pentyl]carbamic acid thiazol-5-ylmethyl ester

> <PUBCHEM_IUPAC_INCHI>
InChI=1S/C37H48N6O5S2.C37H48N4O5/c1-24(2)33(42-36(46)43(5)20-29-22-49-35(40-29)25(3)4)34(45)39-28(16-26-12-8-6-9-13-26)18-32(44)31(17-27-14-10-7-11-15-27)41-37(47)48-21-30-19-38-23-50-30;1-25(2)34(41-20-12-19-38-37(41)45)36(44)39-30(21-28-15-7-5-8-16-28)23-32(42)31(22-29-17-9-6-10-18-29)40-33(43)24-46-35-26(3)13-11-14-27(35)4/h6-15,19,22-25,28,31-33,44H,16-18,20-21H2,1-5H3,(H,39,45)(H,41,47)(H,42,46);5-11,13-18,25,30-32,34,42H,12,19-24H2,1-4H3,(H,38,45)(H,39,44)(H,40,43)/t28-,31-,32-,33-;30-,31-,32-,34-/m00/s1

> <PUBCHEM_IUPAC_INCHIKEY>
OFFWOVJBSQMVPI-RMLGOCCBSA-N

> <PUBCHEM_EXACT_MASS>
1348.675232

> <PUBCHEM_MOLECULAR_FORMULA>
C74H96N10O10S2

> <PUBCHEM_MOLECULAR_WEIGHT>
1349.7

> <PUBCHEM_OPENEYE_CAN_SMILES>
CC1=C(C(=CC=C1)C)OCC(=O)NC(CC2=CC=CC=C2)C(CC(CC3=CC=CC=C3)NC(=O)C(C(C)C)N4CCCNC4=O)O.CC(C)C1=NC(=CS1)CN(C)C(=O)NC(C(C)C)C(=O)NC(CC2=CC=CC=C2)CC(C(CC3=CC=CC=C3)NC(=O)OCC4=CN=CS4)O

> <PUBCHEM_OPENEYE_ISO_SMILES>
CC1=C(C(=CC=C1)C)OCC(=O)N[C@@H](CC2=CC=CC=C2)[C@H](C[C@H](CC3=CC=CC=C3)NC(=O)[C@H](C(C)C)N4CCCNC4=O)O.CC(C)C1=NC(=CS1)CN(C)C(=O)N[C@@H](C(C)C)C(=O)N[C@@H](CC2=CC=CC=C2)C[C@@H]([C@H](CC3=CC=CC=C3)NC(=O)OCC4=CN=CS4)O

> <PUBCHEM_CACTVS_TPSA>
322

> <PUBCHEM_MONOISOTOPIC_WEIGHT>
1348.675232

> <PUBCHEM_TOTAL_CHARGE>
0

> <PUBCHEM_HEAVY_ATOM_COUNT>
96

> <PUBCHEM_ATOM_DEF_STEREO_COUNT>
8

> <PUBCHEM_ATOM_UDEF_STEREO_COUNT>
0

> <PUBCHEM_BOND_DEF_STEREO_COUNT>
0

> <PUBCHEM_BOND_UDEF_STEREO_COUNT>
0

> <PUBCHEM_ISOTOPIC_ATOM_COUNT>
0

> <PUBCHEM_COMPONENT_COUNT>
2

> <PUBCHEM_CACTVS_TAUTO_COUNT>
-1

> <PUBCHEM_COORDINATE_TYPE>
1
5
255

> <PUBCHEM_BONDANNOTATIONS>
1  84  8
1  94  8
24  14  6
28  15  5
38  17  6
42  18  5
46  19  6
2  90  8
2  91  8
21  83  8
21  91  8
22  92  8
22  94  8
23  29  5
26  3  6
41  47  8
41  48  8
44  54  8
44  55  8
47  56  8
48  57  8
40  5  5
52  62  8
52  63  8
53  67  8
53  68  8
54  64  8
55  65  8
56  61  8
57  61  8
62  71  8
63  72  8
64  69  8
65  69  8
67  73  8
68  74  8
71  75  8
72  75  8
73  76  8
74  76  8
77  81  8
77  82  8
81  85  8
82  86  8
83  90  8
84  92  8
85  89  8
86  89  8

$$$$
