125137283
  -OEChem-05242006132D

 26 27  0     1  0  0  0  0  0999 V2000
    4.7026   -1.6865    0.0000 S   0  0  0  0  0  0  0  0  0  0  0  0
    2.0000    2.8080    0.0000 F   0  0  0  0  0  0  0  0  0  0  0  0
    3.7320    0.8080    0.0000 N   0  0  3  0  0  0  0  0  0  0  0  0
    5.5116   -0.2853    0.0000 N   0  0  0  0  0  0  0  0  0  0  0  0
    6.1808   -1.0284    0.0000 N   0  0  0  0  0  0  0  0  0  0  0  0
    4.5981    1.3080    0.0000 C   0  0  0  0  0  0  0  0  0  0  0  0
    2.8660    1.3080    0.0000 C   0  0  0  0  0  0  0  0  0  0  0  0
    4.5981    2.3080    0.0000 C   0  0  0  0  0  0  0  0  0  0  0  0
    3.7320   -0.1920    0.0000 C   0  0  0  0  0  0  0  0  0  0  0  0
    2.8660    2.3080    0.0000 C   0  0  0  0  0  0  0  0  0  0  0  0
    3.7320    2.8080    0.0000 C   0  0  0  0  0  0  0  0  0  0  0  0
    4.5981   -0.6920    0.0000 C   0  0  0  0  0  0  0  0  0  0  0  0
    5.6808   -1.8944    0.0000 C   0  0  0  0  0  0  0  0  0  0  0  0
    6.0875   -2.8080    0.0000 C   0  0  0  0  0  0  0  0  0  0  0  0
    4.8101    0.7254    0.0000 H   0  0  0  0  0  0  0  0  0  0  0  0
    5.2087    1.4156    0.0000 H   0  0  0  0  0  0  0  0  0  0  0  0
    2.2554    1.4156    0.0000 H   0  0  0  0  0  0  0  0  0  0  0  0
    2.6540    0.7254    0.0000 H   0  0  0  0  0  0  0  0  0  0  0  0
    5.2087    2.2003    0.0000 H   0  0  0  0  0  0  0  0  0  0  0  0
    4.8101    2.8906    0.0000 H   0  0  0  0  0  0  0  0  0  0  0  0
    3.1215   -0.0843    0.0000 H   0  0  0  0  0  0  0  0  0  0  0  0
    3.5200   -0.7746    0.0000 H   0  0  0  0  0  0  0  0  0  0  0  0
    3.7320    3.4280    0.0000 H   0  0  0  0  0  0  0  0  0  0  0  0
    5.5211   -3.0602    0.0000 H   0  0  0  0  0  0  0  0  0  0  0  0
    6.3397   -3.3744    0.0000 H   0  0  0  0  0  0  0  0  0  0  0  0
    6.6539   -2.5558    0.0000 H   0  0  0  0  0  0  0  0  0  0  0  0
  1 12  1  0  0  0  0
  1 13  1  0  0  0  0
  2 10  1  0  0  0  0
  3  6  1  0  0  0  0
  3  7  1  0  0  0  0
  3  9  1  0  0  0  0
  4  5  1  0  0  0  0
  4 12  2  0  0  0  0
  5 13  2  0  0  0  0
  6  8  1  0  0  0  0
  6 15  1  0  0  0  0
  6 16  1  0  0  0  0
  7 10  1  0  0  0  0
  7 17  1  0  0  0  0
  7 18  1  0  0  0  0
  8 11  1  0  0  0  0
  8 19  1  0  0  0  0
  8 20  1  0  0  0  0
  9 12  1  0  0  0  0
  9 21  1  0  0  0  0
  9 22  1  0  0  0  0
 10 11  2  0  0  0  0
 11 23  1  0  0  0  0
 13 14  1  0  0  0  0
 14 24  1  0  0  0  0
 14 25  1  0  0  0  0
 14 26  1  0  0  0  0
M  END
> <PUBCHEM_COMPOUND_CID>
125137283

> <PUBCHEM_COMPOUND_CANONICALIZED>
1

> <PUBCHEM_CACTVS_COMPLEXITY>
234

> <PUBCHEM_CACTVS_HBOND_ACCEPTOR>
5

> <PUBCHEM_CACTVS_HBOND_DONOR>
0

> <PUBCHEM_CACTVS_ROTATABLE_BOND>
2

> <PUBCHEM_CACTVS_SUBSKEYS>
AAADccBzAQBAAAAAAAAAAAAAAAAAAWAAAAAgAAAAAAAAAAABgAAAHQQIAAAACADBQgQCAAMAAAimACBiAACQAIBgABAQCAAYAAgAQAAAAQAUAAAACACoAAIAAAAAAAAAAAAAAAAAAAAAAAAAAAAAAAAAAA==

> <PUBCHEM_IUPAC_OPENEYE_NAME>
2-[(5-fluoro-3,6-dihydro-2H-pyridin-1-yl)methyl]-5-methyl-1,3,4-thiadiazole

> <PUBCHEM_IUPAC_CAS_NAME>
2-[(5-fluoro-3,6-dihydro-2H-pyridin-1-yl)methyl]-5-methyl-1,3,4-thiadiazole

> <PUBCHEM_IUPAC_NAME_MARKUP>
2-[(5-fluoro-3,6-dihydro-2<I>H</I>-pyridin-1-yl)methyl]-5-methyl-1,3,4-thiadiazole

> <PUBCHEM_IUPAC_NAME>
2-[(5-fluoro-3,6-dihydro-2H-pyridin-1-yl)methyl]-5-methyl-1,3,4-thiadiazole

> <PUBCHEM_IUPAC_SYSTEMATIC_NAME>
2-[(5-fluoranyl-3,6-dihydro-2H-pyridin-1-yl)methyl]-5-methyl-1,3,4-thiadiazole

> <PUBCHEM_IUPAC_TRADITIONAL_NAME>
2-[(5-fluoro-3,6-dihydro-2H-pyridin-1-yl)methyl]-5-methyl-1,3,4-thiadiazole

> <PUBCHEM_IUPAC_INCHI>
InChI=1S/C9H12FN3S/c1-7-11-12-9(14-7)6-13-4-2-3-8(10)5-13/h3H,2,4-6H2,1H3

> <PUBCHEM_IUPAC_INCHIKEY>
WRJUIVWNZADJJL-UHFFFAOYSA-N

> <PUBCHEM_XLOGP3_AA>
1.1

> <PUBCHEM_EXACT_MASS>
213.073597

> <PUBCHEM_MOLECULAR_FORMULA>
C9H12FN3S

> <PUBCHEM_MOLECULAR_WEIGHT>
213.28

> <PUBCHEM_OPENEYE_CAN_SMILES>
CC1=NN=C(S1)CN2CCC=C(C2)F

> <PUBCHEM_OPENEYE_ISO_SMILES>
CC1=NN=C(S1)CN2CCC=C(C2)F

> <PUBCHEM_CACTVS_TPSA>
57.3

> <PUBCHEM_MONOISOTOPIC_WEIGHT>
213.073597

> <PUBCHEM_TOTAL_CHARGE>
0

> <PUBCHEM_HEAVY_ATOM_COUNT>
14

> <PUBCHEM_ATOM_DEF_STEREO_COUNT>
0

> <PUBCHEM_ATOM_UDEF_STEREO_COUNT>
0

> <PUBCHEM_BOND_DEF_STEREO_COUNT>
0

> <PUBCHEM_BOND_UDEF_STEREO_COUNT>
0

> <PUBCHEM_ISOTOPIC_ATOM_COUNT>
0

> <PUBCHEM_COMPONENT_COUNT>
1

> <PUBCHEM_CACTVS_TAUTO_COUNT>
-1

> <PUBCHEM_COORDINATE_TYPE>
1
5
255

> <PUBCHEM_BONDANNOTATIONS>
1  12  8
1  13  8
4  12  8
4  5  8
5  13  8

$$$$
