129628674
  -OEChem-05242006132D

412411  0     1  0  0  0  0  0999 V2000
    7.3985    6.5950    0.0000 O   0  0  0  0  0  0  0  0  0  0  0  0
   13.3312   -0.4050    0.0000 O   0  0  0  0  0  0  0  0  0  0  0  0
   10.5991   -2.9050    0.0000 O   0  0  0  0  0  0  0  0  0  0  0  0
   10.1305    4.0950    0.0000 O   0  0  0  0  0  0  0  0  0  0  0  0
    4.6664    4.0950    0.0000 O   0  0  0  0  0  0  0  0  0  0  0  0
   16.0632   -2.9050    0.0000 O   0  0  0  0  0  0  0  0  0  0  0  0
    7.8671   -0.4050    0.0000 O   0  0  0  0  0  0  0  0  0  0  0  0
   12.8626    6.5950    0.0000 O   0  0  0  0  0  0  0  0  0  0  0  0
    5.1350   -2.9050    0.0000 O   0  0  0  0  0  0  0  0  0  0  0  0
   15.5946   -9.9050    0.0000 O   0  0  0  0  0  0  0  0  0  0  0  0
   16.0632   11.0950    0.0000 O   0  0  0  0  0  0  0  0  0  0  0  0
   12.8626   -7.4050    0.0000 O   0  0  0  0  0  0  0  0  0  0  0  0
   15.5946    4.0950    0.0000 O   0  0  0  0  0  0  0  0  0  0  0  0
   10.1305   -9.9050    0.0000 O   0  0  0  0  0  0  0  0  0  0  0  0
   13.3312   13.5950    0.0000 O   0  0  0  0  0  0  0  0  0  0  0  0
    7.3985   -7.4050    0.0000 O   0  0  0  0  0  0  0  0  0  0  0  0
   10.5991   11.0950    0.0000 O   0  0  0  0  0  0  0  0  0  0  0  0
    4.6664   -9.9050    0.0000 O   0  0  0  0  0  0  0  0  0  0  0  0
    7.8671   13.5950    0.0000 O   0  0  0  0  0  0  0  0  0  0  0  0
    5.1350  -16.9050    0.0000 O   0  0  0  0  0  0  0  0  0  0  0  0
    4.2690   12.5950    0.0000 O   0  0  0  0  0  0  0  0  0  0  0  0
    5.1350   11.0950    0.0000 O   0  0  0  0  0  0  0  0  0  0  0  0
   12.3312   -1.9050    0.0000 N   0  0  0  0  0  0  0  0  0  0  0  0
    8.3985    5.0950    0.0000 N   0  0  0  0  0  0  0  0  0  0  0  0
    5.6664    5.5950    0.0000 N   0  0  0  0  0  0  0  0  0  0  0  0
   15.0632   -1.4050    0.0000 N   0  0  0  0  0  0  0  0  0  0  0  0
    9.5991   -1.4050    0.0000 N   0  0  0  0  0  0  0  0  0  0  0  0
   11.1305    5.5950    0.0000 N   0  0  0  0  0  0  0  0  0  0  0  0
    2.9344    5.0950    0.0000 N   0  0  0  0  0  0  0  0  0  0  0  0
   17.7953   -1.9050    0.0000 N   0  0  0  0  0  0  0  0  0  0  0  0
    6.8671   -1.9050    0.0000 N   0  0  0  0  0  0  0  0  0  0  0  0
   13.8626    5.0950    0.0000 N   0  0  0  0  0  0  0  0  0  0  0  0
   17.7953   12.0950    0.0000 N   0  0  0  0  0  0  0  0  0  0  0  0
   11.1305   -8.4050    0.0000 N   0  0  0  0  0  0  0  0  0  0  0  0
   15.0632   12.5950    0.0000 N   0  0  0  0  0  0  0  0  0  0  0  0
   13.8626   -8.9050    0.0000 N   0  0  0  0  0  0  0  0  0  0  0  0
    8.3985   -8.9050    0.0000 N   0  0  0  0  0  0  0  0  0  0  0  0
   12.3312   12.0950    0.0000 N   0  0  0  0  0  0  0  0  0  0  0  0
    5.6664   -8.4050    0.0000 N   0  0  0  0  0  0  0  0  0  0  0  0
    9.5991   12.5950    0.0000 N   0  0  0  0  0  0  0  0  0  0  0  0
    2.9344   -8.9050    0.0000 N   0  0  0  0  0  0  0  0  0  0  0  0
    6.8671   12.0950    0.0000 N   0  0  0  0  0  0  0  0  0  0  0  0
    2.5369   -0.4050    0.0000 N   0  0  0  0  0  0  0  0  0  0  0  0
   18.1927    6.5950    0.0000 N   0  0  0  0  0  0  0  0  0  0  0  0
   18.1927   -7.4050    0.0000 N   0  0  0  0  0  0  0  0  0  0  0  0
    6.8671  -15.9050    0.0000 N   0  0  0  0  0  0  0  0  0  0  0  0
    4.2690   16.5950    0.0000 N   0  0  0  0  0  0  0  0  0  0  0  0
    2.5369  -14.4050    0.0000 N   0  0  0  0  0  0  0  0  0  0  0  0
    6.5324    5.0950    0.0000 C   0  0  2  0  0  0  0  0  0  0  0  0
   11.4651   -1.4050    0.0000 C   0  0  2  0  0  0  0  0  0  0  0  0
    9.2645    5.5950    0.0000 C   0  0  2  0  0  0  0  0  0  0  0  0
   14.1972   -1.9050    0.0000 C   0  0  2  0  0  0  0  0  0  0  0  0
    3.8004    5.5950    0.0000 C   0  0  2  0  0  0  0  0  0  0  0  0
    8.7331   -1.9050    0.0000 C   0  0  2  0  0  0  0  0  0  0  0  0
   11.9965    5.0950    0.0000 C   0  0  2  0  0  0  0  0  0  0  0  0
   16.9292   -1.4050    0.0000 C   0  0  2  0  0  0  0  0  0  0  0  0
    6.5324    4.0950    0.0000 C   0  0  0  0  0  0  0  0  0  0  0  0
   11.4651   -0.4050    0.0000 C   0  0  0  0  0  0  0  0  0  0  0  0
    9.2645    6.5950    0.0000 C   0  0  0  0  0  0  0  0  0  0  0  0
   14.1972   -2.9050    0.0000 C   0  0  0  0  0  0  0  0  0  0  0  0
    6.0010   -1.4050    0.0000 C   0  0  2  0  0  0  0  0  0  0  0  0
    3.8004    6.5950    0.0000 C   0  0  0  0  0  0  0  0  0  0  0  0
    8.7331   -2.9050    0.0000 C   0  0  0  0  0  0  0  0  0  0  0  0
   16.9292   12.5950    0.0000 C   0  0  2  0  0  0  0  0  0  0  0  0
   11.9965    4.0950    0.0000 C   0  0  0  0  0  0  0  0  0  0  0  0
   11.9965   -8.9050    0.0000 C   0  0  2  0  0  0  0  0  0  0  0  0
   16.9292   -0.4050    0.0000 C   0  0  0  0  0  0  0  0  0  0  0  0
   14.7286    5.5950    0.0000 C   0  0  2  0  0  0  0  0  0  0  0  0
   14.7286   -8.4050    0.0000 C   0  0  2  0  0  0  0  0  0  0  0  0
   14.1972   12.0950    0.0000 C   0  0  2  0  0  0  0  0  0  0  0  0
    9.2645   -8.4050    0.0000 C   0  0  2  0  0  0  0  0  0  0  0  0
    7.3985    3.5950    0.0000 C   0  0  0  0  0  0  0  0  0  0  0  0
   10.5991    0.0950    0.0000 C   0  0  0  0  0  0  0  0  0  0  0  0
   10.1305    7.0950    0.0000 C   0  0  0  0  0  0  0  0  0  0  0  0
   13.3312   -3.4050    0.0000 C   0  0  0  0  0  0  0  0  0  0  0  0
   16.9292   13.5950    0.0000 C   0  0  0  0  0  0  0  0  0  0  0  0
    2.9344    7.0950    0.0000 C   0  0  0  0  0  0  0  0  0  0  0  0
    7.8671   -3.4050    0.0000 C   0  0  0  0  0  0  0  0  0  0  0  0
   11.9965   -9.9050    0.0000 C   0  0  0  0  0  0  0  0  0  0  0  0
   12.8626    3.5950    0.0000 C   0  0  0  0  0  0  0  0  0  0  0  0
   17.7953    0.0950    0.0000 C   0  0  0  0  0  0  0  0  0  0  0  0
    7.3985    5.5950    0.0000 C   0  0  0  0  0  0  0  0  0  0  0  0
   13.3312   -1.4050    0.0000 C   0  0  0  0  0  0  0  0  0  0  0  0
   14.1972   11.0950    0.0000 C   0  0  0  0  0  0  0  0  0  0  0  0
    6.0010   -0.4050    0.0000 C   0  0  0  0  0  0  0  0  0  0  0  0
   10.5991   -1.9050    0.0000 C   0  0  0  0  0  0  0  0  0  0  0  0
    9.2645   -7.4050    0.0000 C   0  0  0  0  0  0  0  0  0  0  0  0
   10.1305    5.0950    0.0000 C   0  0  0  0  0  0  0  0  0  0  0  0
    4.6664    5.0950    0.0000 C   0  0  0  0  0  0  0  0  0  0  0  0
   16.0632   -1.9050    0.0000 C   0  0  0  0  0  0  0  0  0  0  0  0
   11.4651   12.5950    0.0000 C   0  0  2  0  0  0  0  0  0  0  0  0
   14.7286    6.5950    0.0000 C   0  0  0  0  0  0  0  0  0  0  0  0
    7.8671   -1.4050    0.0000 C   0  0  0  0  0  0  0  0  0  0  0  0
   14.7286   -7.4050    0.0000 C   0  0  0  0  0  0  0  0  0  0  0  0
   17.7953   14.0950    0.0000 C   0  0  0  0  0  0  0  0  0  0  0  0
    6.5324   -8.9050    0.0000 C   0  0  2  0  0  0  0  0  0  0  0  0
   12.8626  -10.4050    0.0000 C   0  0  0  0  0  0  0  0  0  0  0  0
   12.8626    5.5950    0.0000 C   0  0  0  0  0  0  0  0  0  0  0  0
    5.1350   -1.9050    0.0000 C   0  0  0  0  0  0  0  0  0  0  0  0
   13.3312   10.5950    0.0000 C   0  0  0  0  0  0  0  0  0  0  0  0
   10.1305   -6.9050    0.0000 C   0  0  0  0  0  0  0  0  0  0  0  0
   11.4651   13.5950    0.0000 C   0  0  0  0  0  0  0  0  0  0  0  0
   15.5946   -8.9050    0.0000 C   0  0  0  0  0  0  0  0  0  0  0  0
    6.5324   -9.9050    0.0000 C   0  0  0  0  0  0  0  0  0  0  0  0
   16.0632   12.0950    0.0000 C   0  0  0  0  0  0  0  0  0  0  0  0
   12.8626   -8.4050    0.0000 C   0  0  0  0  0  0  0  0  0  0  0  0
   15.5946    5.0950    0.0000 C   0  0  0  0  0  0  0  0  0  0  0  0
   10.1305   -8.9050    0.0000 C   0  0  0  0  0  0  0  0  0  0  0  0
    5.1350    0.0950    0.0000 C   0  0  0  0  0  0  0  0  0  0  0  0
   13.3312   12.5950    0.0000 C   0  0  0  0  0  0  0  0  0  0  0  0
   15.5946    7.0950    0.0000 C   0  0  0  0  0  0  0  0  0  0  0  0
   10.5991   14.0950    0.0000 C   0  0  0  0  0  0  0  0  0  0  0  0
   15.5946   -6.9050    0.0000 C   0  0  0  0  0  0  0  0  0  0  0  0
    7.3985  -10.4050    0.0000 C   0  0  0  0  0  0  0  0  0  0  0  0
    7.3985   -8.4050    0.0000 C   0  0  0  0  0  0  0  0  0  0  0  0
    7.3985    2.5950    0.0000 C   0  0  0  0  0  0  0  0  0  0  0  0
    8.2645    4.0950    0.0000 C   0  0  0  0  0  0  0  0  0  0  0  0
   10.5991    1.0950    0.0000 C   0  0  0  0  0  0  0  0  0  0  0  0
    9.7331   -0.4050    0.0000 C   0  0  0  0  0  0  0  0  0  0  0  0
   10.1305    8.0950    0.0000 C   0  0  0  0  0  0  0  0  0  0  0  0
   10.9965    6.5950    0.0000 C   0  0  0  0  0  0  0  0  0  0  0  0
   13.3312   -4.4050    0.0000 C   0  0  0  0  0  0  0  0  0  0  0  0
   12.4651   -2.9050    0.0000 C   0  0  0  0  0  0  0  0  0  0  0  0
    8.7331   12.0950    0.0000 C   0  0  2  0  0  0  0  0  0  0  0  0
    3.8004   -8.4050    0.0000 C   0  0  2  0  0  0  0  0  0  0  0  0
    2.9344    8.0950    0.0000 C   0  0  0  0  0  0  0  0  0  0  0  0
    2.0683    6.5950    0.0000 C   0  0  0  0  0  0  0  0  0  0  0  0
    7.8671   -4.4050    0.0000 C   0  0  0  0  0  0  0  0  0  0  0  0
    7.0010   -2.9050    0.0000 C   0  0  0  0  0  0  0  0  0  0  0  0
   10.5991   12.0950    0.0000 C   0  0  0  0  0  0  0  0  0  0  0  0
   12.8626    2.5950    0.0000 C   0  0  0  0  0  0  0  0  0  0  0  0
   13.7286    4.0950    0.0000 C   0  0  0  0  0  0  0  0  0  0  0  0
   17.7953    1.0950    0.0000 C   0  0  0  0  0  0  0  0  0  0  0  0
   18.6613   -0.4050    0.0000 C   0  0  0  0  0  0  0  0  0  0  0  0
    4.2690   -0.4050    0.0000 C   0  0  0  0  0  0  0  0  0  0  0  0
    8.7331   11.0950    0.0000 C   0  0  0  0  0  0  0  0  0  0  0  0
    3.8004   -7.4050    0.0000 C   0  0  0  0  0  0  0  0  0  0  0  0
   16.4606    6.5950    0.0000 C   0  0  0  0  0  0  0  0  0  0  0  0
   16.4606   -7.4050    0.0000 C   0  0  0  0  0  0  0  0  0  0  0  0
   17.7953   15.0950    0.0000 C   0  0  0  0  0  0  0  0  0  0  0  0
   18.6613   13.5950    0.0000 C   0  0  0  0  0  0  0  0  0  0  0  0
   12.8626  -11.4050    0.0000 C   0  0  0  0  0  0  0  0  0  0  0  0
   13.7286   -9.9050    0.0000 C   0  0  0  0  0  0  0  0  0  0  0  0
   13.3312    9.5950    0.0000 C   0  0  0  0  0  0  0  0  0  0  0  0
   12.4651   11.0950    0.0000 C   0  0  0  0  0  0  0  0  0  0  0  0
   10.1305   -5.9050    0.0000 C   0  0  0  0  0  0  0  0  0  0  0  0
   10.9965   -7.4050    0.0000 C   0  0  0  0  0  0  0  0  0  0  0  0
    4.6664   -8.9050    0.0000 C   0  0  0  0  0  0  0  0  0  0  0  0
    7.8671   10.5950    0.0000 C   0  0  0  0  0  0  0  0  0  0  0  0
    2.9344   -6.9050    0.0000 C   0  0  0  0  0  0  0  0  0  0  0  0
   10.5991   15.0950    0.0000 C   0  0  0  0  0  0  0  0  0  0  0  0
    9.7331   13.5950    0.0000 C   0  0  0  0  0  0  0  0  0  0  0  0
    7.3985  -11.4050    0.0000 C   0  0  0  0  0  0  0  0  0  0  0  0
    8.2645   -9.9050    0.0000 C   0  0  0  0  0  0  0  0  0  0  0  0
    7.8671   12.5950    0.0000 C   0  0  0  0  0  0  0  0  0  0  0  0
    3.4030    0.0950    0.0000 C   0  0  0  0  0  0  0  0  0  0  0  0
   17.3267    7.0950    0.0000 C   0  0  0  0  0  0  0  0  0  0  0  0
   17.3267   -6.9050    0.0000 C   0  0  0  0  0  0  0  0  0  0  0  0
    7.8671    9.5950    0.0000 C   0  0  0  0  0  0  0  0  0  0  0  0
    7.0010   11.0950    0.0000 C   0  0  0  0  0  0  0  0  0  0  0  0
    2.9344   -5.9050    0.0000 C   0  0  0  0  0  0  0  0  0  0  0  0
    2.0683   -7.4050    0.0000 C   0  0  0  0  0  0  0  0  0  0  0  0
    6.0010   12.5950    0.0000 C   0  0  2  0  0  0  0  0  0  0  0  0
    5.1350  -15.9050    0.0000 C   0  0  0  0  0  0  0  0  0  0  0  0
    6.0010  -15.4050    0.0000 C   0  0  1  0  0  0  0  0  0  0  0  0
    6.0010   13.5950    0.0000 C   0  0  0  0  0  0  0  0  0  0  0  0
    6.0010  -14.4050    0.0000 C   0  0  0  0  0  0  0  0  0  0  0  0
    5.1350   14.0950    0.0000 C   0  0  0  0  0  0  0  0  0  0  0  0
    5.1350  -13.9050    0.0000 C   0  0  0  0  0  0  0  0  0  0  0  0
    5.1350   15.0950    0.0000 C   0  0  0  0  0  0  0  0  0  0  0  0
    5.1350   12.0950    0.0000 C   0  0  0  0  0  0  0  0  0  0  0  0
    4.2690  -14.4050    0.0000 C   0  0  0  0  0  0  0  0  0  0  0  0
    4.2690   15.5950    0.0000 C   0  0  0  0  0  0  0  0  0  0  0  0
    3.4030  -13.9050    0.0000 C   0  0  0  0  0  0  0  0  0  0  0  0
    5.9955    4.7850    0.0000 H   0  0  0  0  0  0  0  0  0  0  0  0
   12.0021   -1.0950    0.0000 H   0  0  0  0  0  0  0  0  0  0  0  0
    8.7276    5.9050    0.0000 H   0  0  0  0  0  0  0  0  0  0  0  0
   14.7341   -2.2150    0.0000 H   0  0  0  0  0  0  0  0  0  0  0  0
    3.2635    5.9050    0.0000 H   0  0  0  0  0  0  0  0  0  0  0  0
    8.7331   -1.2850    0.0000 H   0  0  0  0  0  0  0  0  0  0  0  0
   11.4596    4.7850    0.0000 H   0  0  0  0  0  0  0  0  0  0  0  0
   17.4662   -1.0950    0.0000 H   0  0  0  0  0  0  0  0  0  0  0  0
    5.9219    4.2027    0.0000 H   0  0  0  0  0  0  0  0  0  0  0  0
    6.3204    3.5124    0.0000 H   0  0  0  0  0  0  0  0  0  0  0  0
   12.0757   -0.5127    0.0000 H   0  0  0  0  0  0  0  0  0  0  0  0
   11.6772    0.1776    0.0000 H   0  0  0  0  0  0  0  0  0  0  0  0
    9.0524    7.1776    0.0000 H   0  0  0  0  0  0  0  0  0  0  0  0
    8.6539    6.4873    0.0000 H   0  0  0  0  0  0  0  0  0  0  0  0
   14.4092   -3.4876    0.0000 H   0  0  0  0  0  0  0  0  0  0  0  0
   14.8078   -2.7973    0.0000 H   0  0  0  0  0  0  0  0  0  0  0  0
    6.5380   -1.0950    0.0000 H   0  0  0  0  0  0  0  0  0  0  0  0
    4.4110    6.4873    0.0000 H   0  0  0  0  0  0  0  0  0  0  0  0
    4.0124    7.1776    0.0000 H   0  0  0  0  0  0  0  0  0  0  0  0
    8.9451   -3.4876    0.0000 H   0  0  0  0  0  0  0  0  0  0  0  0
    9.3437   -2.7973    0.0000 H   0  0  0  0  0  0  0  0  0  0  0  0
   17.4662   12.9050    0.0000 H   0  0  0  0  0  0  0  0  0  0  0  0
   11.4596   -9.2150    0.0000 H   0  0  0  0  0  0  0  0  0  0  0  0
   11.3860    4.2027    0.0000 H   0  0  0  0  0  0  0  0  0  0  0  0
   11.7845    3.5124    0.0000 H   0  0  0  0  0  0  0  0  0  0  0  0
   16.7172    0.1776    0.0000 H   0  0  0  0  0  0  0  0  0  0  0  0
   16.3187   -0.5127    0.0000 H   0  0  0  0  0  0  0  0  0  0  0  0
   14.1917    5.9050    0.0000 H   0  0  0  0  0  0  0  0  0  0  0  0
   14.1917   -8.0950    0.0000 H   0  0  0  0  0  0  0  0  0  0  0  0
   14.7341   11.7850    0.0000 H   0  0  0  0  0  0  0  0  0  0  0  0
    8.7276   -8.0950    0.0000 H   0  0  0  0  0  0  0  0  0  0  0  0
    6.8615    3.2850    0.0000 H   0  0  0  0  0  0  0  0  0  0  0  0
   10.0622    0.4050    0.0000 H   0  0  0  0  0  0  0  0  0  0  0  0
   10.1305    6.4750    0.0000 H   0  0  0  0  0  0  0  0  0  0  0  0
   12.7942   -3.7150    0.0000 H   0  0  0  0  0  0  0  0  0  0  0  0
   16.7172   14.1776    0.0000 H   0  0  0  0  0  0  0  0  0  0  0  0
   16.3187   13.4873    0.0000 H   0  0  0  0  0  0  0  0  0  0  0  0
    3.4713    7.4050    0.0000 H   0  0  0  0  0  0  0  0  0  0  0  0
    7.3301   -3.7150    0.0000 H   0  0  0  0  0  0  0  0  0  0  0  0
   11.3860   -9.7973    0.0000 H   0  0  0  0  0  0  0  0  0  0  0  0
   11.7845  -10.4876    0.0000 H   0  0  0  0  0  0  0  0  0  0  0  0
   12.3256    3.2850    0.0000 H   0  0  0  0  0  0  0  0  0  0  0  0
   17.2583    0.4050    0.0000 H   0  0  0  0  0  0  0  0  0  0  0  0
   12.8681   -2.2150    0.0000 H   0  0  0  0  0  0  0  0  0  0  0  0
    8.9354    4.7850    0.0000 H   0  0  0  0  0  0  0  0  0  0  0  0
   14.4092   10.5124    0.0000 H   0  0  0  0  0  0  0  0  0  0  0  0
   14.8078   11.2027    0.0000 H   0  0  0  0  0  0  0  0  0  0  0  0
    6.6116   -0.5127    0.0000 H   0  0  0  0  0  0  0  0  0  0  0  0
    6.2131    0.1776    0.0000 H   0  0  0  0  0  0  0  0  0  0  0  0
    6.2034    5.9050    0.0000 H   0  0  0  0  0  0  0  0  0  0  0  0
    9.0524   -6.8224    0.0000 H   0  0  0  0  0  0  0  0  0  0  0  0
    8.6539   -7.5127    0.0000 H   0  0  0  0  0  0  0  0  0  0  0  0
   15.6001   -1.0950    0.0000 H   0  0  0  0  0  0  0  0  0  0  0  0
   10.1360   -1.0950    0.0000 H   0  0  0  0  0  0  0  0  0  0  0  0
   11.6675    5.9050    0.0000 H   0  0  0  0  0  0  0  0  0  0  0  0
   12.0021   12.9050    0.0000 H   0  0  0  0  0  0  0  0  0  0  0  0
   14.5165    7.1776    0.0000 H   0  0  0  0  0  0  0  0  0  0  0  0
   14.1180    6.4873    0.0000 H   0  0  0  0  0  0  0  0  0  0  0  0
    3.4713    4.7850    0.0000 H   0  0  0  0  0  0  0  0  0  0  0  0
   14.5165   -6.8224    0.0000 H   0  0  0  0  0  0  0  0  0  0  0  0
   14.1180   -7.5127    0.0000 H   0  0  0  0  0  0  0  0  0  0  0  0
   17.2583   14.4050    0.0000 H   0  0  0  0  0  0  0  0  0  0  0  0
    5.9955   -9.2150    0.0000 H   0  0  0  0  0  0  0  0  0  0  0  0
   12.3256  -10.7150    0.0000 H   0  0  0  0  0  0  0  0  0  0  0  0
   18.3322   -2.2150    0.0000 H   0  0  0  0  0  0  0  0  0  0  0  0
    7.4040   -2.2150    0.0000 H   0  0  0  0  0  0  0  0  0  0  0  0
   13.3312   11.2150    0.0000 H   0  0  0  0  0  0  0  0  0  0  0  0
    9.5936   -6.5950    0.0000 H   0  0  0  0  0  0  0  0  0  0  0  0
   12.0757   13.4873    0.0000 H   0  0  0  0  0  0  0  0  0  0  0  0
   11.6772   14.1776    0.0000 H   0  0  0  0  0  0  0  0  0  0  0  0
   14.3995    4.7850    0.0000 H   0  0  0  0  0  0  0  0  0  0  0  0
    5.9219   -9.7973    0.0000 H   0  0  0  0  0  0  0  0  0  0  0  0
    6.3204  -10.4876    0.0000 H   0  0  0  0  0  0  0  0  0  0  0  0
   18.3322   11.7850    0.0000 H   0  0  0  0  0  0  0  0  0  0  0  0
   11.6675   -8.0950    0.0000 H   0  0  0  0  0  0  0  0  0  0  0  0
   15.6001   12.9050    0.0000 H   0  0  0  0  0  0  0  0  0  0  0  0
   14.3995   -9.2150    0.0000 H   0  0  0  0  0  0  0  0  0  0  0  0
    5.5335    0.5699    0.0000 H   0  0  0  0  0  0  0  0  0  0  0  0
    4.7365    0.5699    0.0000 H   0  0  0  0  0  0  0  0  0  0  0  0
    8.9354   -9.2150    0.0000 H   0  0  0  0  0  0  0  0  0  0  0  0
   15.9931    7.5700    0.0000 H   0  0  0  0  0  0  0  0  0  0  0  0
   15.1961    7.5700    0.0000 H   0  0  0  0  0  0  0  0  0  0  0  0
   10.0622   14.4050    0.0000 H   0  0  0  0  0  0  0  0  0  0  0  0
   15.9931   -6.4300    0.0000 H   0  0  0  0  0  0  0  0  0  0  0  0
   15.1961   -6.4300    0.0000 H   0  0  0  0  0  0  0  0  0  0  0  0
    6.8615  -10.7150    0.0000 H   0  0  0  0  0  0  0  0  0  0  0  0
   12.8681   11.7850    0.0000 H   0  0  0  0  0  0  0  0  0  0  0  0
    6.7785    2.5950    0.0000 H   0  0  0  0  0  0  0  0  0  0  0  0
    7.3985    1.9750    0.0000 H   0  0  0  0  0  0  0  0  0  0  0  0
    8.0185    2.5950    0.0000 H   0  0  0  0  0  0  0  0  0  0  0  0
    8.5745    3.5581    0.0000 H   0  0  0  0  0  0  0  0  0  0  0  0
    8.8014    4.4050    0.0000 H   0  0  0  0  0  0  0  0  0  0  0  0
    7.9545    4.6319    0.0000 H   0  0  0  0  0  0  0  0  0  0  0  0
   11.2191    1.0950    0.0000 H   0  0  0  0  0  0  0  0  0  0  0  0
   10.5991    1.7150    0.0000 H   0  0  0  0  0  0  0  0  0  0  0  0
    9.9791    1.0950    0.0000 H   0  0  0  0  0  0  0  0  0  0  0  0
    9.4231    0.1319    0.0000 H   0  0  0  0  0  0  0  0  0  0  0  0
    9.1962   -0.7150    0.0000 H   0  0  0  0  0  0  0  0  0  0  0  0
   10.0431   -0.9419    0.0000 H   0  0  0  0  0  0  0  0  0  0  0  0
   10.7505    8.0950    0.0000 H   0  0  0  0  0  0  0  0  0  0  0  0
   10.1305    8.7150    0.0000 H   0  0  0  0  0  0  0  0  0  0  0  0
    9.5105    8.0950    0.0000 H   0  0  0  0  0  0  0  0  0  0  0  0
   10.6865    6.0581    0.0000 H   0  0  0  0  0  0  0  0  0  0  0  0
   11.5335    6.2850    0.0000 H   0  0  0  0  0  0  0  0  0  0  0  0
   11.3065    7.1319    0.0000 H   0  0  0  0  0  0  0  0  0  0  0  0
   12.7112   -4.4050    0.0000 H   0  0  0  0  0  0  0  0  0  0  0  0
   13.3312   -5.0250    0.0000 H   0  0  0  0  0  0  0  0  0  0  0  0
   13.9512   -4.4050    0.0000 H   0  0  0  0  0  0  0  0  0  0  0  0
   12.7751   -2.3681    0.0000 H   0  0  0  0  0  0  0  0  0  0  0  0
   11.9282   -2.5950    0.0000 H   0  0  0  0  0  0  0  0  0  0  0  0
   12.1551   -3.4419    0.0000 H   0  0  0  0  0  0  0  0  0  0  0  0
    9.2700   11.7850    0.0000 H   0  0  0  0  0  0  0  0  0  0  0  0
    3.2635   -8.0950    0.0000 H   0  0  0  0  0  0  0  0  0  0  0  0
    3.5544    8.0950    0.0000 H   0  0  0  0  0  0  0  0  0  0  0  0
    2.9344    8.7150    0.0000 H   0  0  0  0  0  0  0  0  0  0  0  0
    2.3144    8.0950    0.0000 H   0  0  0  0  0  0  0  0  0  0  0  0
    1.7583    7.1319    0.0000 H   0  0  0  0  0  0  0  0  0  0  0  0
    1.5314    6.2850    0.0000 H   0  0  0  0  0  0  0  0  0  0  0  0
    2.3783    6.0581    0.0000 H   0  0  0  0  0  0  0  0  0  0  0  0
    7.2471   -4.4050    0.0000 H   0  0  0  0  0  0  0  0  0  0  0  0
    7.8671   -5.0250    0.0000 H   0  0  0  0  0  0  0  0  0  0  0  0
    8.4871   -4.4050    0.0000 H   0  0  0  0  0  0  0  0  0  0  0  0
    7.3110   -2.3681    0.0000 H   0  0  0  0  0  0  0  0  0  0  0  0
    6.4641   -2.5950    0.0000 H   0  0  0  0  0  0  0  0  0  0  0  0
    6.6910   -3.4419    0.0000 H   0  0  0  0  0  0  0  0  0  0  0  0
   12.2426    2.5950    0.0000 H   0  0  0  0  0  0  0  0  0  0  0  0
   12.8626    1.9750    0.0000 H   0  0  0  0  0  0  0  0  0  0  0  0
   13.4826    2.5950    0.0000 H   0  0  0  0  0  0  0  0  0  0  0  0
   14.0386    3.5581    0.0000 H   0  0  0  0  0  0  0  0  0  0  0  0
   14.2655    4.4050    0.0000 H   0  0  0  0  0  0  0  0  0  0  0  0
   13.4186    4.6319    0.0000 H   0  0  0  0  0  0  0  0  0  0  0  0
   18.4153    1.0950    0.0000 H   0  0  0  0  0  0  0  0  0  0  0  0
   17.7953    1.7150    0.0000 H   0  0  0  0  0  0  0  0  0  0  0  0
   17.1753    1.0950    0.0000 H   0  0  0  0  0  0  0  0  0  0  0  0
   18.3513   -0.9419    0.0000 H   0  0  0  0  0  0  0  0  0  0  0  0
   19.1982   -0.7150    0.0000 H   0  0  0  0  0  0  0  0  0  0  0  0
   18.9713    0.1319    0.0000 H   0  0  0  0  0  0  0  0  0  0  0  0
    6.2034   -8.0950    0.0000 H   0  0  0  0  0  0  0  0  0  0  0  0
    3.8705   -0.8799    0.0000 H   0  0  0  0  0  0  0  0  0  0  0  0
    4.6675   -0.8799    0.0000 H   0  0  0  0  0  0  0  0  0  0  0  0
    8.9451   10.5124    0.0000 H   0  0  0  0  0  0  0  0  0  0  0  0
    9.3437   11.2027    0.0000 H   0  0  0  0  0  0  0  0  0  0  0  0
    4.4110   -7.5127    0.0000 H   0  0  0  0  0  0  0  0  0  0  0  0
    4.0124   -6.8224    0.0000 H   0  0  0  0  0  0  0  0  0  0  0  0
   16.0621    6.1201    0.0000 H   0  0  0  0  0  0  0  0  0  0  0  0
   16.8592    6.1201    0.0000 H   0  0  0  0  0  0  0  0  0  0  0  0
   16.0621   -7.8800    0.0000 H   0  0  0  0  0  0  0  0  0  0  0  0
   16.8592   -7.8800    0.0000 H   0  0  0  0  0  0  0  0  0  0  0  0
   18.4153   15.0950    0.0000 H   0  0  0  0  0  0  0  0  0  0  0  0
   17.7953   15.7150    0.0000 H   0  0  0  0  0  0  0  0  0  0  0  0
   17.1753   15.0950    0.0000 H   0  0  0  0  0  0  0  0  0  0  0  0
   18.3513   13.0581    0.0000 H   0  0  0  0  0  0  0  0  0  0  0  0
   19.1982   13.2850    0.0000 H   0  0  0  0  0  0  0  0  0  0  0  0
   18.9713   14.1319    0.0000 H   0  0  0  0  0  0  0  0  0  0  0  0
   12.2426  -11.4050    0.0000 H   0  0  0  0  0  0  0  0  0  0  0  0
   12.8626  -12.0250    0.0000 H   0  0  0  0  0  0  0  0  0  0  0  0
   13.4826  -11.4050    0.0000 H   0  0  0  0  0  0  0  0  0  0  0  0
   14.0386  -10.4419    0.0000 H   0  0  0  0  0  0  0  0  0  0  0  0
   14.2655   -9.5950    0.0000 H   0  0  0  0  0  0  0  0  0  0  0  0
   13.4186   -9.3681    0.0000 H   0  0  0  0  0  0  0  0  0  0  0  0
   10.1360   12.9050    0.0000 H   0  0  0  0  0  0  0  0  0  0  0  0
   12.7112    9.5950    0.0000 H   0  0  0  0  0  0  0  0  0  0  0  0
   13.3312    8.9750    0.0000 H   0  0  0  0  0  0  0  0  0  0  0  0
   13.9512    9.5950    0.0000 H   0  0  0  0  0  0  0  0  0  0  0  0
   12.7751   11.6319    0.0000 H   0  0  0  0  0  0  0  0  0  0  0  0
   11.9282   11.4050    0.0000 H   0  0  0  0  0  0  0  0  0  0  0  0
   12.1551   10.5581    0.0000 H   0  0  0  0  0  0  0  0  0  0  0  0
   10.7505   -5.9050    0.0000 H   0  0  0  0  0  0  0  0  0  0  0  0
   10.1305   -5.2850    0.0000 H   0  0  0  0  0  0  0  0  0  0  0  0
    9.5105   -5.9050    0.0000 H   0  0  0  0  0  0  0  0  0  0  0  0
   10.6865   -7.9419    0.0000 H   0  0  0  0  0  0  0  0  0  0  0  0
   11.5335   -7.7150    0.0000 H   0  0  0  0  0  0  0  0  0  0  0  0
   11.3065   -6.8681    0.0000 H   0  0  0  0  0  0  0  0  0  0  0  0
    7.8671   11.2150    0.0000 H   0  0  0  0  0  0  0  0  0  0  0  0
    2.9344   -7.5250    0.0000 H   0  0  0  0  0  0  0  0  0  0  0  0
   11.2191   15.0950    0.0000 H   0  0  0  0  0  0  0  0  0  0  0  0
   10.5991   15.7150    0.0000 H   0  0  0  0  0  0  0  0  0  0  0  0
    9.9791   15.0950    0.0000 H   0  0  0  0  0  0  0  0  0  0  0  0
    9.4231   14.1319    0.0000 H   0  0  0  0  0  0  0  0  0  0  0  0
    9.1962   13.2850    0.0000 H   0  0  0  0  0  0  0  0  0  0  0  0
   10.0431   13.0581    0.0000 H   0  0  0  0  0  0  0  0  0  0  0  0
    6.7785  -11.4050    0.0000 H   0  0  0  0  0  0  0  0  0  0  0  0
    7.3985  -12.0250    0.0000 H   0  0  0  0  0  0  0  0  0  0  0  0
    8.0185  -11.4050    0.0000 H   0  0  0  0  0  0  0  0  0  0  0  0
    8.5745  -10.4419    0.0000 H   0  0  0  0  0  0  0  0  0  0  0  0
    8.8014   -9.5950    0.0000 H   0  0  0  0  0  0  0  0  0  0  0  0
    7.9545   -9.3681    0.0000 H   0  0  0  0  0  0  0  0  0  0  0  0
    3.8015    0.5699    0.0000 H   0  0  0  0  0  0  0  0  0  0  0  0
    3.0044    0.5699    0.0000 H   0  0  0  0  0  0  0  0  0  0  0  0
    3.4713   -9.2150    0.0000 H   0  0  0  0  0  0  0  0  0  0  0  0
   17.7252    7.5700    0.0000 H   0  0  0  0  0  0  0  0  0  0  0  0
   16.9281    7.5700    0.0000 H   0  0  0  0  0  0  0  0  0  0  0  0
   17.7252   -6.4300    0.0000 H   0  0  0  0  0  0  0  0  0  0  0  0
   16.9281   -6.4300    0.0000 H   0  0  0  0  0  0  0  0  0  0  0  0
    7.2471    9.5950    0.0000 H   0  0  0  0  0  0  0  0  0  0  0  0
    7.8671    8.9750    0.0000 H   0  0  0  0  0  0  0  0  0  0  0  0
    8.4871    9.5950    0.0000 H   0  0  0  0  0  0  0  0  0  0  0  0
    7.3110   11.6319    0.0000 H   0  0  0  0  0  0  0  0  0  0  0  0
    6.4641   11.4050    0.0000 H   0  0  0  0  0  0  0  0  0  0  0  0
    6.6910   10.5581    0.0000 H   0  0  0  0  0  0  0  0  0  0  0  0
    3.5544   -5.9050    0.0000 H   0  0  0  0  0  0  0  0  0  0  0  0
    2.9344   -5.2850    0.0000 H   0  0  0  0  0  0  0  0  0  0  0  0
    2.3144   -5.9050    0.0000 H   0  0  0  0  0  0  0  0  0  0  0  0
    1.7583   -6.8681    0.0000 H   0  0  0  0  0  0  0  0  0  0  0  0
    1.5314   -7.7150    0.0000 H   0  0  0  0  0  0  0  0  0  0  0  0
    2.3783   -7.9419    0.0000 H   0  0  0  0  0  0  0  0  0  0  0  0
    6.5380   12.9050    0.0000 H   0  0  0  0  0  0  0  0  0  0  0  0
    7.4040   11.7850    0.0000 H   0  0  0  0  0  0  0  0  0  0  0  0
    6.0010  -16.0250    0.0000 H   0  0  0  0  0  0  0  0  0  0  0  0
    6.6116   13.4873    0.0000 H   0  0  0  0  0  0  0  0  0  0  0  0
    6.2131   14.1776    0.0000 H   0  0  0  0  0  0  0  0  0  0  0  0
    6.6116  -14.5127    0.0000 H   0  0  0  0  0  0  0  0  0  0  0  0
    6.2131  -13.8224    0.0000 H   0  0  0  0  0  0  0  0  0  0  0  0
    4.5244   14.2027    0.0000 H   0  0  0  0  0  0  0  0  0  0  0  0
    4.9230   13.5124    0.0000 H   0  0  0  0  0  0  0  0  0  0  0  0
    5.5335  -13.4301    0.0000 H   0  0  0  0  0  0  0  0  0  0  0  0
    4.7365  -13.4301    0.0000 H   0  0  0  0  0  0  0  0  0  0  0  0
    2.0000   -0.0950    0.0000 H   0  0  0  0  0  0  0  0  0  0  0  0
    2.5369   -1.0250    0.0000 H   0  0  0  0  0  0  0  0  0  0  0  0
   18.7296    6.9050    0.0000 H   0  0  0  0  0  0  0  0  0  0  0  0
   18.1927    5.9750    0.0000 H   0  0  0  0  0  0  0  0  0  0  0  0
   18.7296   -7.0950    0.0000 H   0  0  0  0  0  0  0  0  0  0  0  0
   18.1927   -8.0250    0.0000 H   0  0  0  0  0  0  0  0  0  0  0  0
    5.7456   14.9873    0.0000 H   0  0  0  0  0  0  0  0  0  0  0  0
    5.3471   15.6776    0.0000 H   0  0  0  0  0  0  0  0  0  0  0  0
    3.8705  -14.8800    0.0000 H   0  0  0  0  0  0  0  0  0  0  0  0
    4.6675  -14.8800    0.0000 H   0  0  0  0  0  0  0  0  0  0  0  0
    7.4040  -15.5950    0.0000 H   0  0  0  0  0  0  0  0  0  0  0  0
    6.8671  -16.5250    0.0000 H   0  0  0  0  0  0  0  0  0  0  0  0
    3.6584   15.7027    0.0000 H   0  0  0  0  0  0  0  0  0  0  0  0
    4.0569   15.0124    0.0000 H   0  0  0  0  0  0  0  0  0  0  0  0
    3.8015  -13.4301    0.0000 H   0  0  0  0  0  0  0  0  0  0  0  0
    3.0044  -13.4301    0.0000 H   0  0  0  0  0  0  0  0  0  0  0  0
    3.7320   12.2850    0.0000 H   0  0  0  0  0  0  0  0  0  0  0  0
    3.7320   16.9050    0.0000 H   0  0  0  0  0  0  0  0  0  0  0  0
    4.8059   16.9050    0.0000 H   0  0  0  0  0  0  0  0  0  0  0  0
    2.0000  -14.0950    0.0000 H   0  0  0  0  0  0  0  0  0  0  0  0
    2.5369  -15.0250    0.0000 H   0  0  0  0  0  0  0  0  0  0  0  0
  1 82  2  0  0  0  0
  2 83  2  0  0  0  0
  3 86  2  0  0  0  0
  4 88  2  0  0  0  0
  5 89  2  0  0  0  0
  6 90  2  0  0  0  0
  7 93  2  0  0  0  0
  8 98  2  0  0  0  0
  9 99  2  0  0  0  0
 10103  2  0  0  0  0
 11105  2  0  0  0  0
 12106  2  0  0  0  0
 13107  2  0  0  0  0
 14108  2  0  0  0  0
 15110  2  0  0  0  0
 16115  2  0  0  0  0
 17130  2  0  0  0  0
 18148  2  0  0  0  0
 19155  2  0  0  0  0
 20164  2  0  0  0  0
 21171  1  0  0  0  0
 21408  1  0  0  0  0
 22171  2  0  0  0  0
 50 23  1  1  0  0  0
 23 83  1  0  0  0  0
 23218  1  0  0  0  0
 51 24  1  6  0  0  0
 24 82  1  0  0  0  0
 24219  1  0  0  0  0
 49 25  1  1  0  0  0
 25 89  1  0  0  0  0
 25224  1  0  0  0  0
 52 26  1  6  0  0  0
 26 90  1  0  0  0  0
 26227  1  0  0  0  0
 54 27  1  6  0  0  0
 27 86  1  0  0  0  0
 27228  1  0  0  0  0
 55 28  1  1  0  0  0
 28 88  1  0  0  0  0
 28229  1  0  0  0  0
 53 29  1  6  0  0  0
 29 99  1  0  0  0  0
 29233  1  0  0  0  0
 56 30  1  1  0  0  0
 30103  1  0  0  0  0
 30239  1  0  0  0  0
 61 31  1  1  0  0  0
 31 93  1  0  0  0  0
 31240  1  0  0  0  0
 68 32  1  6  0  0  0
 32 98  1  0  0  0  0
 32245  1  0  0  0  0
 64 33  1  1  0  0  0
 33107  1  0  0  0  0
 33248  1  0  0  0  0
 66 34  1  1  0  0  0
 34108  1  0  0  0  0
 34249  1  0  0  0  0
 70 35  1  6  0  0  0
 35105  1  0  0  0  0
 35250  1  0  0  0  0
 69 36  1  6  0  0  0
 36106  1  0  0  0  0
 36251  1  0  0  0  0
 71 37  1  6  0  0  0
 37115  1  0  0  0  0
 37254  1  0  0  0  0
 91 38  1  1  0  0  0
 38110  1  0  0  0  0
 38261  1  0  0  0  0
 96 39  1  1  0  0  0
 39148  1  0  0  0  0
 39312  1  0  0  0  0
124 40  1  6  0  0  0
 40130  1  0  0  0  0
 40335  1  0  0  0  0
125 41  1  6  0  0  0
 41164  1  0  0  0  0
 41364  1  0  0  0  0
 42155  1  0  0  0  0
163 42  1  1  0  0  0
 42382  1  0  0  0  0
 43156  1  0  0  0  0
 43392  1  0  0  0  0
 43393  1  0  0  0  0
 44157  1  0  0  0  0
 44394  1  0  0  0  0
 44395  1  0  0  0  0
 45158  1  0  0  0  0
 45396  1  0  0  0  0
 45397  1  0  0  0  0
165 46  1  1  0  0  0
 46402  1  0  0  0  0
 46403  1  0  0  0  0
 47173  1  0  0  0  0
 47409  1  0  0  0  0
 47410  1  0  0  0  0
 48174  1  0  0  0  0
 48411  1  0  0  0  0
 48412  1  0  0  0  0
 49 57  1  0  0  0  0
 49 82  1  0  0  0  0
 49175  1  0  0  0  0
 50 58  1  0  0  0  0
 50 86  1  0  0  0  0
 50176  1  0  0  0  0
 51 59  1  0  0  0  0
 51 88  1  0  0  0  0
 51177  1  0  0  0  0
 52 60  1  0  0  0  0
 52 83  1  0  0  0  0
 52178  1  0  0  0  0
 53 62  1  0  0  0  0
 53 89  1  0  0  0  0
 53179  1  0  0  0  0
 54 63  1  0  0  0  0
 54 93  1  0  0  0  0
 54180  1  0  0  0  0
 55 65  1  0  0  0  0
 55 98  1  0  0  0  0
 55181  1  0  0  0  0
 56 67  1  0  0  0  0
 56 90  1  0  0  0  0
 56182  1  0  0  0  0
 57 72  1  0  0  0  0
 57183  1  0  0  0  0
 57184  1  0  0  0  0
 58 73  1  0  0  0  0
 58185  1  0  0  0  0
 58186  1  0  0  0  0
 59 74  1  0  0  0  0
 59187  1  0  0  0  0
 59188  1  0  0  0  0
 60 75  1  0  0  0  0
 60189  1  0  0  0  0
 60190  1  0  0  0  0
 61 85  1  0  0  0  0
 61 99  1  0  0  0  0
 61191  1  0  0  0  0
 62 77  1  0  0  0  0
 62192  1  0  0  0  0
 62193  1  0  0  0  0
 63 78  1  0  0  0  0
 63194  1  0  0  0  0
 63195  1  0  0  0  0
 64 76  1  0  0  0  0
 64105  1  0  0  0  0
 64196  1  0  0  0  0
 65 80  1  0  0  0  0
 65198  1  0  0  0  0
 65199  1  0  0  0  0
 66 79  1  0  0  0  0
 66106  1  0  0  0  0
 66197  1  0  0  0  0
 67 81  1  0  0  0  0
 67200  1  0  0  0  0
 67201  1  0  0  0  0
 68 92  1  0  0  0  0
 68107  1  0  0  0  0
 68202  1  0  0  0  0
 69 94  1  0  0  0  0
 69103  1  0  0  0  0
 69203  1  0  0  0  0
 70 84  1  0  0  0  0
 70110  1  0  0  0  0
 70204  1  0  0  0  0
 71 87  1  0  0  0  0
 71108  1  0  0  0  0
 71205  1  0  0  0  0
 72116  1  0  0  0  0
 72117  1  0  0  0  0
 72206  1  0  0  0  0
 73118  1  0  0  0  0
 73119  1  0  0  0  0
 73207  1  0  0  0  0
 74120  1  0  0  0  0
 74121  1  0  0  0  0
 74208  1  0  0  0  0
 75122  1  0  0  0  0
 75123  1  0  0  0  0
 75209  1  0  0  0  0
 76 95  1  0  0  0  0
 76210  1  0  0  0  0
 76211  1  0  0  0  0
 77126  1  0  0  0  0
 77127  1  0  0  0  0
 77212  1  0  0  0  0
 78128  1  0  0  0  0
 78129  1  0  0  0  0
 78213  1  0  0  0  0
 79 97  1  0  0  0  0
 79214  1  0  0  0  0
 79215  1  0  0  0  0
 80131  1  0  0  0  0
 80132  1  0  0  0  0
 80216  1  0  0  0  0
 81133  1  0  0  0  0
 81134  1  0  0  0  0
 81217  1  0  0  0  0
 84100  1  0  0  0  0
 84220  1  0  0  0  0
 84221  1  0  0  0  0
 85109  1  0  0  0  0
 85222  1  0  0  0  0
 85223  1  0  0  0  0
 87101  1  0  0  0  0
 87225  1  0  0  0  0
 87226  1  0  0  0  0
 91102  1  0  0  0  0
 91130  1  0  0  0  0
 91230  1  0  0  0  0
 92111  1  0  0  0  0
 92231  1  0  0  0  0
 92232  1  0  0  0  0
 94113  1  0  0  0  0
 94234  1  0  0  0  0
 94235  1  0  0  0  0
 95140  1  0  0  0  0
 95141  1  0  0  0  0
 95236  1  0  0  0  0
 96104  1  0  0  0  0
 96115  1  0  0  0  0
 96237  1  0  0  0  0
 97142  1  0  0  0  0
 97143  1  0  0  0  0
 97238  1  0  0  0  0
100144  1  0  0  0  0
100145  1  0  0  0  0
100241  1  0  0  0  0
101146  1  0  0  0  0
101147  1  0  0  0  0
101242  1  0  0  0  0
102112  1  0  0  0  0
102243  1  0  0  0  0
102244  1  0  0  0  0
104114  1  0  0  0  0
104246  1  0  0  0  0
104247  1  0  0  0  0
109135  1  0  0  0  0
109252  1  0  0  0  0
109253  1  0  0  0  0
111138  1  0  0  0  0
111255  1  0  0  0  0
111256  1  0  0  0  0
112151  1  0  0  0  0
112152  1  0  0  0  0
112257  1  0  0  0  0
113139  1  0  0  0  0
113258  1  0  0  0  0
113259  1  0  0  0  0
114153  1  0  0  0  0
114154  1  0  0  0  0
114260  1  0  0  0  0
116262  1  0  0  0  0
116263  1  0  0  0  0
116264  1  0  0  0  0
117265  1  0  0  0  0
117266  1  0  0  0  0
117267  1  0  0  0  0
118268  1  0  0  0  0
118269  1  0  0  0  0
118270  1  0  0  0  0
119271  1  0  0  0  0
119272  1  0  0  0  0
119273  1  0  0  0  0
120274  1  0  0  0  0
120275  1  0  0  0  0
120276  1  0  0  0  0
121277  1  0  0  0  0
121278  1  0  0  0  0
121279  1  0  0  0  0
122280  1  0  0  0  0
122281  1  0  0  0  0
122282  1  0  0  0  0
123283  1  0  0  0  0
123284  1  0  0  0  0
123285  1  0  0  0  0
124136  1  0  0  0  0
124155  1  0  0  0  0
124286  1  0  0  0  0
125137  1  0  0  0  0
125148  1  0  0  0  0
125287  1  0  0  0  0
126288  1  0  0  0  0
126289  1  0  0  0  0
126290  1  0  0  0  0
127291  1  0  0  0  0
127292  1  0  0  0  0
127293  1  0  0  0  0
128294  1  0  0  0  0
128295  1  0  0  0  0
128296  1  0  0  0  0
129297  1  0  0  0  0
129298  1  0  0  0  0
129299  1  0  0  0  0
131300  1  0  0  0  0
131301  1  0  0  0  0
131302  1  0  0  0  0
132303  1  0  0  0  0
132304  1  0  0  0  0
132305  1  0  0  0  0
133306  1  0  0  0  0
133307  1  0  0  0  0
133308  1  0  0  0  0
134309  1  0  0  0  0
134310  1  0  0  0  0
134311  1  0  0  0  0
135156  1  0  0  0  0
135313  1  0  0  0  0
135314  1  0  0  0  0
136149  1  0  0  0  0
136315  1  0  0  0  0
136316  1  0  0  0  0
137150  1  0  0  0  0
137317  1  0  0  0  0
137318  1  0  0  0  0
138157  1  0  0  0  0
138319  1  0  0  0  0
138320  1  0  0  0  0
139158  1  0  0  0  0
139321  1  0  0  0  0
139322  1  0  0  0  0
140323  1  0  0  0  0
140324  1  0  0  0  0
140325  1  0  0  0  0
141326  1  0  0  0  0
141327  1  0  0  0  0
141328  1  0  0  0  0
142329  1  0  0  0  0
142330  1  0  0  0  0
142331  1  0  0  0  0
143332  1  0  0  0  0
143333  1  0  0  0  0
143334  1  0  0  0  0
144336  1  0  0  0  0
144337  1  0  0  0  0
144338  1  0  0  0  0
145339  1  0  0  0  0
145340  1  0  0  0  0
145341  1  0  0  0  0
146342  1  0  0  0  0
146343  1  0  0  0  0
146344  1  0  0  0  0
147345  1  0  0  0  0
147346  1  0  0  0  0
147347  1  0  0  0  0
149159  1  0  0  0  0
149160  1  0  0  0  0
149348  1  0  0  0  0
150161  1  0  0  0  0
150162  1  0  0  0  0
150349  1  0  0  0  0
151350  1  0  0  0  0
151351  1  0  0  0  0
151352  1  0  0  0  0
152353  1  0  0  0  0
152354  1  0  0  0  0
152355  1  0  0  0  0
153356  1  0  0  0  0
153357  1  0  0  0  0
153358  1  0  0  0  0
154359  1  0  0  0  0
154360  1  0  0  0  0
154361  1  0  0  0  0
156362  1  0  0  0  0
156363  1  0  0  0  0
157365  1  0  0  0  0
157366  1  0  0  0  0
158367  1  0  0  0  0
158368  1  0  0  0  0
159369  1  0  0  0  0
159370  1  0  0  0  0
159371  1  0  0  0  0
160372  1  0  0  0  0
160373  1  0  0  0  0
160374  1  0  0  0  0
161375  1  0  0  0  0
161376  1  0  0  0  0
161377  1  0  0  0  0
162378  1  0  0  0  0
162379  1  0  0  0  0
162380  1  0  0  0  0
163166  1  0  0  0  0
163171  1  0  0  0  0
163381  1  0  0  0  0
164165  1  0  0  0  0
165167  1  0  0  0  0
165383  1  0  0  0  0
166168  1  0  0  0  0
166384  1  0  0  0  0
166385  1  0  0  0  0
167169  1  0  0  0  0
167386  1  0  0  0  0
167387  1  0  0  0  0
168170  1  0  0  0  0
168388  1  0  0  0  0
168389  1  0  0  0  0
169172  1  0  0  0  0
169390  1  0  0  0  0
169391  1  0  0  0  0
170173  1  0  0  0  0
170398  1  0  0  0  0
170399  1  0  0  0  0
172174  1  0  0  0  0
172400  1  0  0  0  0
172401  1  0  0  0  0
173404  1  0  0  0  0
173405  1  0  0  0  0
174406  1  0  0  0  0
174407  1  0  0  0  0
M  END
> <PUBCHEM_COMPOUND_CID>
129628674

> <PUBCHEM_COMPOUND_CANONICALIZED>
1

> <PUBCHEM_CACTVS_COMPLEXITY>
4880

> <PUBCHEM_CACTVS_HBOND_ACCEPTOR>
28

> <PUBCHEM_CACTVS_HBOND_DONOR>
27

> <PUBCHEM_CACTVS_ROTATABLE_BOND>
93

> <PUBCHEM_CACTVS_SUBSKEYS>
AAADcfB//gAAAAAAAAAAAAAAAAAAAAAAAAAAAAAAAAAAAAAAAAAAHgAQCAAADSjBgAQCCALAAgAIAAGQGAAAAAAAAAAAAIGIAAACQBIAgCAUQAAEFgCQAAGYSAAMAAAAAAAAAAAAAAAAAAAAAAAAAAAAAA==

> <PUBCHEM_IUPAC_OPENEYE_NAME>
(2R)-6-amino-2-[[(2R)-2-[[(2R)-2-[[(2R)-2-[[(2R)-2-[[(2R)-6-amino-2-[[(2R)-2-[[(2R)-2-[[(2R)-2-[[(2R)-2-[[(2R)-6-amino-2-[[(2R)-2-[[(2R)-2-[[(2R)-2-[[(2R)-2-[[(2R)-6-amino-2-[[(2R)-2-[[(2R)-2-[[(2R)-2-[[(2R)-2-[[(2R)-2,6-diaminohexanoyl]amino]-4-methyl-pentanoyl]amino]-4-methyl-pentanoyl]amino]-4-methyl-pentanoyl]amino]-4-methyl-pentanoyl]amino]hexanoyl]amino]-4-methyl-pentanoyl]amino]-4-methyl-pentanoyl]amino]-4-methyl-pentanoyl]amino]-4-methyl-pentanoyl]amino]hexanoyl]amino]-4-methyl-pentanoyl]amino]-4-methyl-pentanoyl]amino]-4-methyl-pentanoyl]amino]-4-methyl-pentanoyl]amino]hexanoyl]amino]-4-methyl-pentanoyl]amino]-4-methyl-pentanoyl]amino]-4-methyl-pentanoyl]amino]-4-methyl-pentanoyl]amino]hexanoic acid

> <PUBCHEM_IUPAC_CAS_NAME>
(2R)-6-amino-2-[[(2R)-2-[[(2R)-2-[[(2R)-2-[[(2R)-2-[[(2R)-6-amino-2-[[(2R)-2-[[(2R)-2-[[(2R)-2-[[(2R)-2-[[(2R)-6-amino-2-[[(2R)-2-[[(2R)-2-[[(2R)-2-[[(2R)-2-[[(2R)-6-amino-2-[[(2R)-2-[[(2R)-2-[[(2R)-2-[[(2R)-2-[[(2R)-2,6-diamino-1-oxohexyl]amino]-4-methyl-1-oxopentyl]amino]-4-methyl-1-oxopentyl]amino]-4-methyl-1-oxopentyl]amino]-4-methyl-1-oxopentyl]amino]-1-oxohexyl]amino]-4-methyl-1-oxopentyl]amino]-4-methyl-1-oxopentyl]amino]-4-methyl-1-oxopentyl]amino]-4-methyl-1-oxopentyl]amino]-1-oxohexyl]amino]-4-methyl-1-oxopentyl]amino]-4-methyl-1-oxopentyl]amino]-4-methyl-1-oxopentyl]amino]-4-methyl-1-oxopentyl]amino]-1-oxohexyl]amino]-4-methyl-1-oxopentyl]amino]-4-methyl-1-oxopentyl]amino]-4-methyl-1-oxopentyl]amino]-4-methyl-1-oxopentyl]amino]hexanoic acid

> <PUBCHEM_IUPAC_NAME_MARKUP>
(2<I>R</I>)-6-amino-2-[[(2<I>R</I>)-2-[[(2<I>R</I>)-2-[[(2<I>R</I>)-2-[[(2<I>R</I>)-2-[[(2<I>R</I>)-6-amino-2-[[(2<I>R</I>)-2-[[(2<I>R</I>)-2-[[(2<I>R</I>)-2-[[(2<I>R</I>)-2-[[(2<I>R</I>)-6-amino-2-[[(2<I>R</I>)-2-[[(2<I>R</I>)-2-[[(2<I>R</I>)-2-[[(2<I>R</I>)-2-[[(2<I>R</I>)-6-amino-2-[[(2<I>R</I>)-2-[[(2<I>R</I>)-2-[[(2<I>R</I>)-2-[[(2<I>R</I>)-2-[[(2<I>R</I>)-2,6-diaminohexanoyl]amino]-4-methylpentanoyl]amino]-4-methylpentanoyl]amino]-4-methylpentanoyl]amino]-4-methylpentanoyl]amino]hexanoyl]amino]-4-methylpentanoyl]amino]-4-methylpentanoyl]amino]-4-methylpentanoyl]amino]-4-methylpentanoyl]amino]hexanoyl]amino]-4-methylpentanoyl]amino]-4-methylpentanoyl]amino]-4-methylpentanoyl]amino]-4-methylpentanoyl]amino]hexanoyl]amino]-4-methylpentanoyl]amino]-4-methylpentanoyl]amino]-4-methylpentanoyl]amino]-4-methylpentanoyl]amino]hexanoic acid

> <PUBCHEM_IUPAC_NAME>
(2R)-6-amino-2-[[(2R)-2-[[(2R)-2-[[(2R)-2-[[(2R)-2-[[(2R)-6-amino-2-[[(2R)-2-[[(2R)-2-[[(2R)-2-[[(2R)-2-[[(2R)-6-amino-2-[[(2R)-2-[[(2R)-2-[[(2R)-2-[[(2R)-2-[[(2R)-6-amino-2-[[(2R)-2-[[(2R)-2-[[(2R)-2-[[(2R)-2-[[(2R)-2,6-diaminohexanoyl]amino]-4-methylpentanoyl]amino]-4-methylpentanoyl]amino]-4-methylpentanoyl]amino]-4-methylpentanoyl]amino]hexanoyl]amino]-4-methylpentanoyl]amino]-4-methylpentanoyl]amino]-4-methylpentanoyl]amino]-4-methylpentanoyl]amino]hexanoyl]amino]-4-methylpentanoyl]amino]-4-methylpentanoyl]amino]-4-methylpentanoyl]amino]-4-methylpentanoyl]amino]hexanoyl]amino]-4-methylpentanoyl]amino]-4-methylpentanoyl]amino]-4-methylpentanoyl]amino]-4-methylpentanoyl]amino]hexanoic acid

> <PUBCHEM_IUPAC_SYSTEMATIC_NAME>
(2R)-6-azanyl-2-[[(2R)-2-[[(2R)-2-[[(2R)-2-[[(2R)-2-[[(2R)-6-azanyl-2-[[(2R)-2-[[(2R)-2-[[(2R)-2-[[(2R)-2-[[(2R)-6-azanyl-2-[[(2R)-2-[[(2R)-2-[[(2R)-2-[[(2R)-2-[[(2R)-6-azanyl-2-[[(2R)-2-[[(2R)-2-[[(2R)-2-[[(2R)-2-[[(2R)-2,6-bis(azanyl)hexanoyl]amino]-4-methyl-pentanoyl]amino]-4-methyl-pentanoyl]amino]-4-methyl-pentanoyl]amino]-4-methyl-pentanoyl]amino]hexanoyl]amino]-4-methyl-pentanoyl]amino]-4-methyl-pentanoyl]amino]-4-methyl-pentanoyl]amino]-4-methyl-pentanoyl]amino]hexanoyl]amino]-4-methyl-pentanoyl]amino]-4-methyl-pentanoyl]amino]-4-methyl-pentanoyl]amino]-4-methyl-pentanoyl]amino]hexanoyl]amino]-4-methyl-pentanoyl]amino]-4-methyl-pentanoyl]amino]-4-methyl-pentanoyl]amino]-4-methyl-pentanoyl]amino]hexanoic acid

> <PUBCHEM_IUPAC_TRADITIONAL_NAME>
(2R)-6-amino-2-[[(2R)-2-[[(2R)-2-[[(2R)-2-[[(2R)-2-[[(2R)-6-amino-2-[[(2R)-2-[[(2R)-2-[[(2R)-2-[[(2R)-2-[[(2R)-6-amino-2-[[(2R)-2-[[(2R)-2-[[(2R)-2-[[(2R)-2-[[(2R)-6-amino-2-[[(2R)-2-[[(2R)-2-[[(2R)-2-[[(2R)-2-[[(2R)-2,6-diaminohexanoyl]amino]-4-methyl-pentanoyl]amino]-4-methyl-pentanoyl]amino]-4-methyl-pentanoyl]amino]-4-methyl-pentanoyl]amino]hexanoyl]amino]-4-methyl-pentanoyl]amino]-4-methyl-pentanoyl]amino]-4-methyl-pentanoyl]amino]-4-methyl-pentanoyl]amino]hexanoyl]amino]-4-methyl-pentanoyl]amino]-4-methyl-pentanoyl]amino]-4-methyl-pentanoyl]amino]-4-methyl-pentanoyl]amino]hexanoyl]amino]-4-methyl-pentanoyl]amino]-4-methyl-pentanoyl]amino]-4-methyl-pentanoyl]amino]-4-methyl-pentanoyl]amino]hexanoic acid

> <PUBCHEM_IUPAC_INCHI>
InChI=1S/C126H238N26O22/c1-69(2)53-90(137-106(153)85(132)43-33-38-48-127)114(161)145-98(61-77(17)18)122(169)149-99(62-78(19)20)118(165)141-91(54-70(3)4)110(157)133-86(44-34-39-49-128)107(154)138-95(58-74(11)12)115(162)146-103(66-82(27)28)123(170)150-100(63-79(21)22)119(166)142-92(55-71(5)6)111(158)134-87(45-35-40-50-129)108(155)139-96(59-75(13)14)116(163)147-104(67-83(29)30)124(171)151-101(64-80(23)24)120(167)143-93(56-72(7)8)112(159)135-88(46-36-41-51-130)109(156)140-97(60-76(15)16)117(164)148-105(68-84(31)32)125(172)152-102(65-81(25)26)121(168)144-94(57-73(9)10)113(160)136-89(126(173)174)47-37-42-52-131/h69-105H,33-68,127-132H2,1-32H3,(H,133,157)(H,134,158)(H,135,159)(H,136,160)(H,137,153)(H,138,154)(H,139,155)(H,140,156)(H,141,165)(H,142,166)(H,143,167)(H,144,168)(H,145,161)(H,146,162)(H,147,163)(H,148,164)(H,149,169)(H,150,170)(H,151,171)(H,152,172)(H,173,174)/t85-,86-,87-,88-,89-,90-,91-,92-,93-,94-,95-,96-,97-,98-,99-,100-,101-,102-,103-,104-,105-/m1/s1

> <PUBCHEM_IUPAC_INCHIKEY>
QSIRXSYRKZHJHX-WAJAWWNLSA-N

> <PUBCHEM_XLOGP3_AA>
11.9

> <PUBCHEM_EXACT_MASS>
2468.833758

> <PUBCHEM_MOLECULAR_FORMULA>
C126H238N26O22

> <PUBCHEM_MOLECULAR_WEIGHT>
2469.4

> <PUBCHEM_OPENEYE_CAN_SMILES>
CC(C)CC(C(=O)NC(CC(C)C)C(=O)NC(CC(C)C)C(=O)NC(CC(C)C)C(=O)NC(CCCCN)C(=O)NC(CC(C)C)C(=O)NC(CC(C)C)C(=O)NC(CC(C)C)C(=O)NC(CC(C)C)C(=O)NC(CCCCN)C(=O)NC(CC(C)C)C(=O)NC(CC(C)C)C(=O)NC(CC(C)C)C(=O)NC(CC(C)C)C(=O)NC(CCCCN)C(=O)NC(CC(C)C)C(=O)NC(CC(C)C)C(=O)NC(CC(C)C)C(=O)NC(CC(C)C)C(=O)NC(CCCCN)C(=O)O)NC(=O)C(CCCCN)N

> <PUBCHEM_OPENEYE_ISO_SMILES>
CC(C)C[C@H](C(=O)N[C@H](CC(C)C)C(=O)N[C@H](CC(C)C)C(=O)N[C@H](CC(C)C)C(=O)N[C@H](CCCCN)C(=O)N[C@H](CC(C)C)C(=O)N[C@H](CC(C)C)C(=O)N[C@H](CC(C)C)C(=O)N[C@H](CC(C)C)C(=O)N[C@H](CCCCN)C(=O)N[C@H](CC(C)C)C(=O)N[C@H](CC(C)C)C(=O)N[C@H](CC(C)C)C(=O)N[C@H](CC(C)C)C(=O)N[C@H](CCCCN)C(=O)N[C@H](CC(C)C)C(=O)N[C@H](CC(C)C)C(=O)N[C@H](CC(C)C)C(=O)N[C@H](CC(C)C)C(=O)N[C@H](CCCCN)C(=O)O)NC(=O)[C@@H](CCCCN)N

> <PUBCHEM_CACTVS_TPSA>
775

> <PUBCHEM_MONOISOTOPIC_WEIGHT>
2467.830403

> <PUBCHEM_TOTAL_CHARGE>
0

> <PUBCHEM_HEAVY_ATOM_COUNT>
174

> <PUBCHEM_ATOM_DEF_STEREO_COUNT>
21

> <PUBCHEM_ATOM_UDEF_STEREO_COUNT>
0

> <PUBCHEM_BOND_DEF_STEREO_COUNT>
0

> <PUBCHEM_BOND_UDEF_STEREO_COUNT>
0

> <PUBCHEM_ISOTOPIC_ATOM_COUNT>
0

> <PUBCHEM_COMPONENT_COUNT>
1

> <PUBCHEM_CACTVS_TAUTO_COUNT>
-1

> <PUBCHEM_COORDINATE_TYPE>
1
5
255

> <PUBCHEM_BONDANNOTATIONS>
50  23  5
51  24  6
49  25  5
52  26  6
54  27  6
55  28  5
53  29  6
56  30  5
61  31  5
68  32  6
64  33  5
66  34  5
70  35  6
69  36  6
71  37  6
91  38  5
96  39  5
124  40  6
125  41  6
163  42  5
165  46  5

$$$$
