133082085
  -OEChem-05242006132D

111109  0     0  0  0  0  0  0999 V2000
    0.5369    1.5000    0.0000 O   0  0  0  0  0  0  0  0  0  0  0  0
    1.4030    0.0000    0.0000 O   0  0  0  0  0  0  0  0  0  0  0  0
    7.8982   12.2400    0.0000 O   0  0  0  0  0  0  0  0  0  0  0  0
    8.7642   10.7400    0.0000 O   0  0  0  0  0  0  0  0  0  0  0  0
    3.1350    1.0000    0.0000 C   0  0  0  0  0  0  0  0  0  0  0  0
    4.0010    1.5000    0.0000 C   0  0  0  0  0  0  0  0  0  0  0  0
    2.2690    1.5000    0.0000 C   0  0  0  0  0  0  0  0  0  0  0  0
    4.8671    1.0000    0.0000 C   0  0  0  0  0  0  0  0  0  0  0  0
    5.7331    1.5000    0.0000 C   0  0  0  0  0  0  0  0  0  0  0  0
    6.5991    1.0000    0.0000 C   0  0  0  0  0  0  0  0  0  0  0  0
   16.9914    1.0000    0.0000 C   0  0  0  0  0  0  0  0  0  0  0  0
   17.8574    1.5000    0.0000 C   0  0  0  0  0  0  0  0  0  0  0  0
    1.4030    1.0000    0.0000 C   0  0  0  0  0  0  0  0  0  0  0  0
    7.4651    1.5000    0.0000 C   0  0  0  0  0  0  0  0  0  0  0  0
    9.1972    1.5000    0.0000 C   0  0  0  0  0  0  0  0  0  0  0  0
    8.3312    1.0000    0.0000 C   0  0  0  0  0  0  0  0  0  0  0  0
   16.1254    1.5000    0.0000 C   0  0  0  0  0  0  0  0  0  0  0  0
   14.3933    1.5000    0.0000 C   0  0  0  0  0  0  0  0  0  0  0  0
   15.2594    1.0000    0.0000 C   0  0  0  0  0  0  0  0  0  0  0  0
   11.7953    1.0000    0.0000 C   0  0  0  0  0  0  0  0  0  0  0  0
   18.7235    1.0000    0.0000 C   0  0  0  0  0  0  0  0  0  0  0  0
   10.0632    1.0000    0.0000 C   0  0  0  0  0  0  0  0  0  0  0  0
   13.5273    1.0000    0.0000 C   0  0  0  0  0  0  0  0  0  0  0  0
   10.9292    1.5000    0.0000 C   0  0  0  0  0  0  0  0  0  0  0  0
   12.6613    1.5000    0.0000 C   0  0  0  0  0  0  0  0  0  0  0  0
   10.4962   11.7400    0.0000 C   0  0  0  0  0  0  0  0  0  0  0  0
   12.2283   10.7400    0.0000 C   0  0  0  0  0  0  0  0  0  0  0  0
   12.2283    8.7400    0.0000 C   0  0  0  0  0  0  0  0  0  0  0  0
   10.4962    7.7400    0.0000 C   0  0  0  0  0  0  0  0  0  0  0  0
   11.3623   12.2400    0.0000 C   0  0  0  0  0  0  0  0  0  0  0  0
   12.2283   11.7400    0.0000 C   0  0  0  0  0  0  0  0  0  0  0  0
    9.6302   12.2400    0.0000 C   0  0  0  0  0  0  0  0  0  0  0  0
   13.0943   10.2400    0.0000 C   0  0  0  0  0  0  0  0  0  0  0  0
   13.0943    9.2400    0.0000 C   0  0  0  0  0  0  0  0  0  0  0  0
    8.7642    8.7400    0.0000 C   0  0  0  0  0  0  0  0  0  0  0  0
   12.2283    7.7400    0.0000 C   0  0  0  0  0  0  0  0  0  0  0  0
   11.3623    7.2400    0.0000 C   0  0  0  0  0  0  0  0  0  0  0  0
    9.6302    7.2400    0.0000 C   0  0  0  0  0  0  0  0  0  0  0  0
    8.7642    7.7400    0.0000 C   0  0  0  0  0  0  0  0  0  0  0  0
    7.0321    7.7400    0.0000 C   0  0  0  0  0  0  0  0  0  0  0  0
    7.8982    9.2400    0.0000 C   0  0  0  0  0  0  0  0  0  0  0  0
    7.0321    8.7400    0.0000 C   0  0  0  0  0  0  0  0  0  0  0  0
    6.1661    7.2400    0.0000 C   0  0  0  0  0  0  0  0  0  0  0  0
    8.7642   11.7400    0.0000 C   0  0  0  0  0  0  0  0  0  0  0  0
    7.0321    5.7400    0.0000 C   0  0  0  0  0  0  0  0  0  0  0  0
    6.1661    6.2400    0.0000 C   0  0  0  0  0  0  0  0  0  0  0  0
    7.0321    4.7400    0.0000 C   0  0  0  0  0  0  0  0  0  0  0  0
    2.7365    0.5251    0.0000 H   0  0  0  0  0  0  0  0  0  0  0  0
    3.5335    0.5251    0.0000 H   0  0  0  0  0  0  0  0  0  0  0  0
    4.3996    1.9750    0.0000 H   0  0  0  0  0  0  0  0  0  0  0  0
    3.6025    1.9750    0.0000 H   0  0  0  0  0  0  0  0  0  0  0  0
    2.6675    1.9750    0.0000 H   0  0  0  0  0  0  0  0  0  0  0  0
    1.8705    1.9750    0.0000 H   0  0  0  0  0  0  0  0  0  0  0  0
    4.8671    0.3800    0.0000 H   0  0  0  0  0  0  0  0  0  0  0  0
    5.7331    2.1200    0.0000 H   0  0  0  0  0  0  0  0  0  0  0  0
    6.2006    0.5251    0.0000 H   0  0  0  0  0  0  0  0  0  0  0  0
    6.9976    0.5251    0.0000 H   0  0  0  0  0  0  0  0  0  0  0  0
   16.5929    0.5251    0.0000 H   0  0  0  0  0  0  0  0  0  0  0  0
   17.3899    0.5251    0.0000 H   0  0  0  0  0  0  0  0  0  0  0  0
   18.2560    1.9750    0.0000 H   0  0  0  0  0  0  0  0  0  0  0  0
   17.4589    1.9750    0.0000 H   0  0  0  0  0  0  0  0  0  0  0  0
    7.4651    2.1200    0.0000 H   0  0  0  0  0  0  0  0  0  0  0  0
    9.5957    1.9750    0.0000 H   0  0  0  0  0  0  0  0  0  0  0  0
    8.7987    1.9750    0.0000 H   0  0  0  0  0  0  0  0  0  0  0  0
   16.1254    2.1200    0.0000 H   0  0  0  0  0  0  0  0  0  0  0  0
    8.3312    0.3800    0.0000 H   0  0  0  0  0  0  0  0  0  0  0  0
   14.7919    1.9750    0.0000 H   0  0  0  0  0  0  0  0  0  0  0  0
   13.9948    1.9750    0.0000 H   0  0  0  0  0  0  0  0  0  0  0  0
   15.2594    0.3800    0.0000 H   0  0  0  0  0  0  0  0  0  0  0  0
   11.3967    0.5251    0.0000 H   0  0  0  0  0  0  0  0  0  0  0  0
   12.1938    0.5251    0.0000 H   0  0  0  0  0  0  0  0  0  0  0  0
   18.4135    0.4631    0.0000 H   0  0  0  0  0  0  0  0  0  0  0  0
   19.2604    0.6900    0.0000 H   0  0  0  0  0  0  0  0  0  0  0  0
   19.0335    1.5369    0.0000 H   0  0  0  0  0  0  0  0  0  0  0  0
   10.0632    0.3800    0.0000 H   0  0  0  0  0  0  0  0  0  0  0  0
   13.5273    0.3800    0.0000 H   0  0  0  0  0  0  0  0  0  0  0  0
   10.9292    2.1200    0.0000 H   0  0  0  0  0  0  0  0  0  0  0  0
   12.6613    2.1200    0.0000 H   0  0  0  0  0  0  0  0  0  0  0  0
   10.0977   11.2651    0.0000 H   0  0  0  0  0  0  0  0  0  0  0  0
   10.8948   11.2651    0.0000 H   0  0  0  0  0  0  0  0  0  0  0  0
   11.6177   10.8477    0.0000 H   0  0  0  0  0  0  0  0  0  0  0  0
   12.0162   10.1574    0.0000 H   0  0  0  0  0  0  0  0  0  0  0  0
   12.0162    9.3226    0.0000 H   0  0  0  0  0  0  0  0  0  0  0  0
   11.6177    8.6323    0.0000 H   0  0  0  0  0  0  0  0  0  0  0  0
   10.8948    8.2150    0.0000 H   0  0  0  0  0  0  0  0  0  0  0  0
   10.0977    8.2150    0.0000 H   0  0  0  0  0  0  0  0  0  0  0  0
   11.3623   12.8600    0.0000 H   0  0  0  0  0  0  0  0  0  0  0  0
   12.7652   12.0500    0.0000 H   0  0  0  0  0  0  0  0  0  0  0  0
   10.0287   12.7149    0.0000 H   0  0  0  0  0  0  0  0  0  0  0  0
    9.2317   12.7149    0.0000 H   0  0  0  0  0  0  0  0  0  0  0  0
   13.6312   10.5500    0.0000 H   0  0  0  0  0  0  0  0  0  0  0  0
   13.6312    8.9300    0.0000 H   0  0  0  0  0  0  0  0  0  0  0  0
    9.3748    8.6323    0.0000 H   0  0  0  0  0  0  0  0  0  0  0  0
    8.9762    9.3226    0.0000 H   0  0  0  0  0  0  0  0  0  0  0  0
   12.7652    7.4300    0.0000 H   0  0  0  0  0  0  0  0  0  0  0  0
   11.3623    6.6200    0.0000 H   0  0  0  0  0  0  0  0  0  0  0  0
    9.6302    6.6200    0.0000 H   0  0  0  0  0  0  0  0  0  0  0  0
    8.2272    7.4300    0.0000 H   0  0  0  0  0  0  0  0  0  0  0  0
    0.0000    1.1900    0.0000 H   0  0  0  0  0  0  0  0  0  0  0  0
    7.2442    7.1574    0.0000 H   0  0  0  0  0  0  0  0  0  0  0  0
    7.6427    7.8477    0.0000 H   0  0  0  0  0  0  0  0  0  0  0  0
    7.8982    9.8600    0.0000 H   0  0  0  0  0  0  0  0  0  0  0  0
    6.4952    9.0500    0.0000 H   0  0  0  0  0  0  0  0  0  0  0  0
    5.6292    7.5500    0.0000 H   0  0  0  0  0  0  0  0  0  0  0  0
    7.6427    5.6323    0.0000 H   0  0  0  0  0  0  0  0  0  0  0  0
    7.2442    6.3226    0.0000 H   0  0  0  0  0  0  0  0  0  0  0  0
    5.6292    5.9300    0.0000 H   0  0  0  0  0  0  0  0  0  0  0  0
    6.4121    4.7400    0.0000 H   0  0  0  0  0  0  0  0  0  0  0  0
    7.0321    4.1200    0.0000 H   0  0  0  0  0  0  0  0  0  0  0  0
    7.6521    4.7400    0.0000 H   0  0  0  0  0  0  0  0  0  0  0  0
    7.3612   11.9300    0.0000 H   0  0  0  0  0  0  0  0  0  0  0  0
  1 13  1  0  0  0  0
  1 99  1  0  0  0  0
  2 13  2  0  0  0  0
  3 44  1  0  0  0  0
  3111  1  0  0  0  0
  4 44  2  0  0  0  0
  5  6  1  0  0  0  0
  5  7  1  0  0  0  0
  5 48  1  0  0  0  0
  5 49  1  0  0  0  0
  6  8  1  0  0  0  0
  6 50  1  0  0  0  0
  6 51  1  0  0  0  0
  7 13  1  0  0  0  0
  7 52  1  0  0  0  0
  7 53  1  0  0  0  0
  8  9  2  0  0  0  0
  8 54  1  0  0  0  0
  9 10  1  0  0  0  0
  9 55  1  0  0  0  0
 10 14  1  0  0  0  0
 10 56  1  0  0  0  0
 10 57  1  0  0  0  0
 11 12  1  0  0  0  0
 11 17  1  0  0  0  0
 11 58  1  0  0  0  0
 11 59  1  0  0  0  0
 12 21  1  0  0  0  0
 12 60  1  0  0  0  0
 12 61  1  0  0  0  0
 14 16  2  0  0  0  0
 14 62  1  0  0  0  0
 15 16  1  0  0  0  0
 15 22  1  0  0  0  0
 15 63  1  0  0  0  0
 15 64  1  0  0  0  0
 16 66  1  0  0  0  0
 17 19  2  0  0  0  0
 17 65  1  0  0  0  0
 18 19  1  0  0  0  0
 18 23  1  0  0  0  0
 18 67  1  0  0  0  0
 18 68  1  0  0  0  0
 19 69  1  0  0  0  0
 20 24  1  0  0  0  0
 20 25  1  0  0  0  0
 20 70  1  0  0  0  0
 20 71  1  0  0  0  0
 21 72  1  0  0  0  0
 21 73  1  0  0  0  0
 21 74  1  0  0  0  0
 22 24  2  0  0  0  0
 22 75  1  0  0  0  0
 23 25  2  0  0  0  0
 23 76  1  0  0  0  0
 24 77  1  0  0  0  0
 25 78  1  0  0  0  0
 26 30  1  0  0  0  0
 26 32  1  0  0  0  0
 26 79  1  0  0  0  0
 26 80  1  0  0  0  0
 27 31  1  0  0  0  0
 27 33  1  0  0  0  0
 27 81  1  0  0  0  0
 27 82  1  0  0  0  0
 28 34  1  0  0  0  0
 28 36  1  0  0  0  0
 28 83  1  0  0  0  0
 28 84  1  0  0  0  0
 29 37  1  0  0  0  0
 29 38  1  0  0  0  0
 29 85  1  0  0  0  0
 29 86  1  0  0  0  0
 30 31  2  0  0  0  0
 30 87  1  0  0  0  0
 31 88  1  0  0  0  0
 32 44  1  0  0  0  0
 32 89  1  0  0  0  0
 32 90  1  0  0  0  0
 33 34  2  0  0  0  0
 33 91  1  0  0  0  0
 34 92  1  0  0  0  0
 35 39  1  0  0  0  0
 35 41  1  0  0  0  0
 35 93  1  0  0  0  0
 35 94  1  0  0  0  0
 36 37  2  0  0  0  0
 36 95  1  0  0  0  0
 37 96  1  0  0  0  0
 38 39  2  0  0  0  0
 38 97  1  0  0  0  0
 39 98  1  0  0  0  0
 40 42  1  0  0  0  0
 40 43  1  0  0  0  0
 40100  1  0  0  0  0
 40101  1  0  0  0  0
 41 42  2  0  0  0  0
 41102  1  0  0  0  0
 42103  1  0  0  0  0
 43 46  2  0  0  0  0
 43104  1  0  0  0  0
 45 46  1  0  0  0  0
 45 47  1  0  0  0  0
 45105  1  0  0  0  0
 45106  1  0  0  0  0
 46107  1  0  0  0  0
 47108  1  0  0  0  0
 47109  1  0  0  0  0
 47110  1  0  0  0  0
M  END
> <PUBCHEM_COMPOUND_CID>
133082085

> <PUBCHEM_COMPOUND_CANONICALIZED>
1

> <PUBCHEM_CACTVS_COMPLEXITY>
874

> <PUBCHEM_CACTVS_HBOND_ACCEPTOR>
4

> <PUBCHEM_CACTVS_HBOND_DONOR>
2

> <PUBCHEM_CACTVS_ROTATABLE_BOND>
28

> <PUBCHEM_CACTVS_SUBSKEYS>
AAADcfB8OAAAAAAAAAAAAAAAAAAAAAAAAAAAAAAAAAAAAAAAAAAAGgAACAAACACAgAACCAAAAgCIACDSCAAAAAAgAAAICAEAAAgAABIAAQAAQAAEgAAIAAKIAAAAAAAAAAAAAAAAAAAAAAAAAAAAAAAAAA==

> <PUBCHEM_IUPAC_OPENEYE_NAME>
(4Z,7Z,10Z,13Z,16Z,19Z)-docosa-4,7,10,13,16,19-hexaenoic acid;(5E,8E,11E,14E,17E)-henicosa-5,8,11,14,17-pentaenoic acid

> <PUBCHEM_IUPAC_CAS_NAME>
(4Z,7Z,10Z,13Z,16Z,19Z)-docosa-4,7,10,13,16,19-hexaenoic acid;(5E,8E,11E,14E,17E)-heneicosa-5,8,11,14,17-pentaenoic acid

> <PUBCHEM_IUPAC_NAME_MARKUP>
(4<I>Z</I>,7<I>Z</I>,10<I>Z</I>,13<I>Z</I>,16<I>Z</I>,19<I>Z</I>)-docosa-4,7,10,13,16,19-hexaenoic acid;(5<I>E</I>,8<I>E</I>,11<I>E</I>,14<I>E</I>,17<I>E</I>)-henicosa-5,8,11,14,17-pentaenoic acid

> <PUBCHEM_IUPAC_NAME>
(4Z,7Z,10Z,13Z,16Z,19Z)-docosa-4,7,10,13,16,19-hexaenoic acid;(5E,8E,11E,14E,17E)-henicosa-5,8,11,14,17-pentaenoic acid

> <PUBCHEM_IUPAC_SYSTEMATIC_NAME>
(4Z,7Z,10Z,13Z,16Z,19Z)-docosa-4,7,10,13,16,19-hexaenoic acid;(5E,8E,11E,14E,17E)-henicosa-5,8,11,14,17-pentaenoic acid

> <PUBCHEM_IUPAC_TRADITIONAL_NAME>
(4Z,7Z,10Z,13Z,16Z,19Z)-docosa-4,7,10,13,16,19-hexaenoic acid;(5E,8E,11E,14E,17E)-heneicosa-5,8,11,14,17-pentaenoic acid

> <PUBCHEM_IUPAC_INCHI>
InChI=1S/C22H32O2.C21H32O2/c1-2-3-4-5-6-7-8-9-10-11-12-13-14-15-16-17-18-19-20-21-22(23)24;1-2-3-4-5-6-7-8-9-10-11-12-13-14-15-16-17-18-19-20-21(22)23/h3-4,6-7,9-10,12-13,15-16,18-19H,2,5,8,11,14,17,20-21H2,1H3,(H,23,24);4-5,7-8,10-11,13-14,16-17H,2-3,6,9,12,15,18-20H2,1H3,(H,22,23)/b4-3-,7-6-,10-9-,13-12-,16-15-,19-18-;5-4+,8-7+,11-10+,14-13+,17-16+

> <PUBCHEM_IUPAC_INCHIKEY>
YZXDIHSFJORZKY-GTCDFJJPSA-N

> <PUBCHEM_EXACT_MASS>
644.480461

> <PUBCHEM_MOLECULAR_FORMULA>
C43H64O4

> <PUBCHEM_MOLECULAR_WEIGHT>
645

> <PUBCHEM_OPENEYE_CAN_SMILES>
CCCC=CCC=CCC=CCC=CCC=CCCCC(=O)O.CCC=CCC=CCC=CCC=CCC=CCC=CCCC(=O)O

> <PUBCHEM_OPENEYE_ISO_SMILES>
CCC/C=C/C/C=C/C/C=C/C/C=C/C/C=C/CCCC(=O)O.CC/C=C\C/C=C\C/C=C\C/C=C\C/C=C\C/C=C\CCC(=O)O

> <PUBCHEM_CACTVS_TPSA>
74.6

> <PUBCHEM_MONOISOTOPIC_WEIGHT>
644.480461

> <PUBCHEM_TOTAL_CHARGE>
0

> <PUBCHEM_HEAVY_ATOM_COUNT>
47

> <PUBCHEM_ATOM_DEF_STEREO_COUNT>
0

> <PUBCHEM_ATOM_UDEF_STEREO_COUNT>
0

> <PUBCHEM_BOND_DEF_STEREO_COUNT>
11

> <PUBCHEM_BOND_UDEF_STEREO_COUNT>
0

> <PUBCHEM_ISOTOPIC_ATOM_COUNT>
0

> <PUBCHEM_COMPONENT_COUNT>
2

> <PUBCHEM_CACTVS_TAUTO_COUNT>
-1

> <PUBCHEM_COORDINATE_TYPE>
1
5
255

$$$$
