135423438
  -OEChem-05242006142D

 73 77  0     0  0  0  0  0  0999 V2000
    6.5155    2.3529    0.0000 O   0  0  0  0  0  0  0  0  0  0  0  0
    8.8600   -4.4868    0.0000 O   0  0  0  0  0  0  0  0  0  0  0  0
    2.8660   -4.9868    0.0000 O   0  0  0  0  0  0  0  0  0  0  0  0
    3.7320   -6.4868    0.0000 O   0  0  0  0  0  0  0  0  0  0  0  0
    7.1368    4.2539    0.0000 N   0  0  0  0  0  0  0  0  0  0  0  0
    5.8011    5.7425    0.0000 N   0  0  0  0  0  0  0  0  0  0  0  0
    8.1618    1.8148    0.0000 N   0  0  0  0  0  0  0  0  0  0  0  0
    7.2764   -5.2916    0.0000 N   0  0  0  0  0  0  0  0  0  0  0  0
    6.9192   -1.9873    0.0000 N   0  0  0  0  0  0  0  0  0  0  0  0
    7.4474    5.2044    0.0000 C   0  0  0  0  0  0  0  0  0  0  0  0
    6.1583    4.0477    0.0000 C   0  0  0  0  0  0  0  0  0  0  0  0
    6.7796    5.9488    0.0000 C   0  0  0  0  0  0  0  0  0  0  0  0
    5.4904    4.7920    0.0000 C   0  0  0  0  0  0  0  0  0  0  0  0
    7.8046    3.5096    0.0000 C   0  0  0  0  0  0  0  0  0  0  0  0
    5.1333    6.4868    0.0000 C   0  0  0  0  0  0  0  0  0  0  0  0
    7.4940    2.5591    0.0000 C   0  0  0  0  0  0  0  0  0  0  0  0
    7.8512    0.8643    0.0000 C   0  0  0  0  0  0  0  0  0  0  0  0
    9.1403    2.0210    0.0000 C   0  0  0  0  0  0  0  0  0  0  0  0
    7.2764   -3.6821    0.0000 C   0  0  0  0  0  0  0  0  0  0  0  0
    6.3301   -3.9868    0.0000 C   0  0  0  0  0  0  0  0  0  0  0  0
    6.3301   -4.9868    0.0000 C   0  0  0  0  0  0  0  0  0  0  0  0
    6.8726    0.6581    0.0000 C   0  0  0  0  0  0  0  0  0  0  0  0
    8.5190    0.1200    0.0000 C   0  0  0  0  0  0  0  0  0  0  0  0
    7.5870   -2.7316    0.0000 C   0  0  0  0  0  0  0  0  0  0  0  0
    7.8600   -4.4868    0.0000 C   0  0  0  0  0  0  0  0  0  0  0  0
    7.2298   -1.0368    0.0000 C   0  0  0  0  0  0  0  0  0  0  0  0
    6.5620   -0.2925    0.0000 C   0  0  0  0  0  0  0  0  0  0  0  0
    8.2083   -0.8305    0.0000 C   0  0  0  0  0  0  0  0  0  0  0  0
    5.4641   -3.4868    0.0000 C   0  0  0  0  0  0  0  0  0  0  0  0
    5.4641   -5.4868    0.0000 C   0  0  0  0  0  0  0  0  0  0  0  0
    8.5655   -2.5254    0.0000 C   0  0  0  0  0  0  0  0  0  0  0  0
    4.5981   -4.9868    0.0000 C   0  0  0  0  0  0  0  0  0  0  0  0
    4.5981   -3.9868    0.0000 C   0  0  0  0  0  0  0  0  0  0  0  0
    9.2334   -3.2697    0.0000 C   0  0  0  0  0  0  0  0  0  0  0  0
    8.8762   -1.5748    0.0000 C   0  0  0  0  0  0  0  0  0  0  0  0
    3.7320   -5.4868    0.0000 C   0  0  0  0  0  0  0  0  0  0  0  0
   10.2119   -3.0634    0.0000 C   0  0  0  0  0  0  0  0  0  0  0  0
    9.8547   -1.3686    0.0000 C   0  0  0  0  0  0  0  0  0  0  0  0
   10.5225   -2.1129    0.0000 C   0  0  0  0  0  0  0  0  0  0  0  0
    2.0000   -5.4868    0.0000 C   0  0  0  0  0  0  0  0  0  0  0  0
    7.9944    4.9124    0.0000 H   0  0  0  0  0  0  0  0  0  0  0  0
    7.8300    5.6924    0.0000 H   0  0  0  0  0  0  0  0  0  0  0  0
    5.6319    3.7201    0.0000 H   0  0  0  0  0  0  0  0  0  0  0  0
    6.3895    3.4724    0.0000 H   0  0  0  0  0  0  0  0  0  0  0  0
    7.3060    6.2764    0.0000 H   0  0  0  0  0  0  0  0  0  0  0  0
    6.5484    6.5240    0.0000 H   0  0  0  0  0  0  0  0  0  0  0  0
    4.9435    5.0840    0.0000 H   0  0  0  0  0  0  0  0  0  0  0  0
    5.1079    4.3041    0.0000 H   0  0  0  0  0  0  0  0  0  0  0  0
    8.3516    3.2176    0.0000 H   0  0  0  0  0  0  0  0  0  0  0  0
    8.1872    3.9975    0.0000 H   0  0  0  0  0  0  0  0  0  0  0  0
    5.5947    6.9009    0.0000 H   0  0  0  0  0  0  0  0  0  0  0  0
    4.7192    6.9483    0.0000 H   0  0  0  0  0  0  0  0  0  0  0  0
    4.6718    6.0728    0.0000 H   0  0  0  0  0  0  0  0  0  0  0  0
    9.2682    1.4144    0.0000 H   0  0  0  0  0  0  0  0  0  0  0  0
    9.7470    2.1489    0.0000 H   0  0  0  0  0  0  0  0  0  0  0  0
    9.0125    2.6277    0.0000 H   0  0  0  0  0  0  0  0  0  0  0  0
    6.4586    1.1195    0.0000 H   0  0  0  0  0  0  0  0  0  0  0  0
    9.1257    0.2478    0.0000 H   0  0  0  0  0  0  0  0  0  0  0  0
    7.4690   -5.8809    0.0000 H   0  0  0  0  0  0  0  0  0  0  0  0
    5.4641   -2.8668    0.0000 H   0  0  0  0  0  0  0  0  0  0  0  0
    5.9553   -0.4203    0.0000 H   0  0  0  0  0  0  0  0  0  0  0  0
    8.6224   -1.2920    0.0000 H   0  0  0  0  0  0  0  0  0  0  0  0
    5.4641   -6.1068    0.0000 H   0  0  0  0  0  0  0  0  0  0  0  0
    4.0611   -3.6768    0.0000 H   0  0  0  0  0  0  0  0  0  0  0  0
    9.0407   -3.8590    0.0000 H   0  0  0  0  0  0  0  0  0  0  0  0
    8.4621   -1.1134    0.0000 H   0  0  0  0  0  0  0  0  0  0  0  0
    9.1700   -5.0238    0.0000 H   0  0  0  0  0  0  0  0  0  0  0  0
   10.6259   -3.5249    0.0000 H   0  0  0  0  0  0  0  0  0  0  0  0
   10.0473   -0.7793    0.0000 H   0  0  0  0  0  0  0  0  0  0  0  0
   11.1292   -1.9851    0.0000 H   0  0  0  0  0  0  0  0  0  0  0  0
    1.6900   -4.9499    0.0000 H   0  0  0  0  0  0  0  0  0  0  0  0
    1.4631   -5.7968    0.0000 H   0  0  0  0  0  0  0  0  0  0  0  0
    2.3100   -6.0238    0.0000 H   0  0  0  0  0  0  0  0  0  0  0  0
  1 16  2  0  0  0  0
  2 25  1  0  0  0  0
  2 67  1  0  0  0  0
  3 36  1  0  0  0  0
  3 40  1  0  0  0  0
  4 36  2  0  0  0  0
  5 10  1  0  0  0  0
  5 11  1  0  0  0  0
  5 14  1  0  0  0  0
  6 12  1  0  0  0  0
  6 13  1  0  0  0  0
  6 15  1  0  0  0  0
  7 16  1  0  0  0  0
  7 17  1  0  0  0  0
  7 18  1  0  0  0  0
  8 21  1  0  0  0  0
  8 25  1  0  0  0  0
  8 59  1  0  0  0  0
  9 24  2  0  0  0  0
  9 26  1  0  0  0  0
 10 12  1  0  0  0  0
 10 41  1  0  0  0  0
 10 42  1  0  0  0  0
 11 13  1  0  0  0  0
 11 43  1  0  0  0  0
 11 44  1  0  0  0  0
 12 45  1  0  0  0  0
 12 46  1  0  0  0  0
 13 47  1  0  0  0  0
 13 48  1  0  0  0  0
 14 16  1  0  0  0  0
 14 49  1  0  0  0  0
 14 50  1  0  0  0  0
 15 51  1  0  0  0  0
 15 52  1  0  0  0  0
 15 53  1  0  0  0  0
 17 22  2  0  0  0  0
 17 23  1  0  0  0  0
 18 54  1  0  0  0  0
 18 55  1  0  0  0  0
 18 56  1  0  0  0  0
 19 20  1  0  0  0  0
 19 24  1  0  0  0  0
 19 25  2  0  0  0  0
 20 21  2  0  0  0  0
 20 29  1  0  0  0  0
 21 30  1  0  0  0  0
 22 27  1  0  0  0  0
 22 57  1  0  0  0  0
 23 28  2  0  0  0  0
 23 58  1  0  0  0  0
 24 31  1  0  0  0  0
 26 27  2  0  0  0  0
 26 28  1  0  0  0  0
 27 61  1  0  0  0  0
 28 62  1  0  0  0  0
 29 33  2  0  0  0  0
 29 60  1  0  0  0  0
 30 32  2  0  0  0  0
 30 63  1  0  0  0  0
 31 34  2  0  0  0  0
 31 35  1  0  0  0  0
 32 33  1  0  0  0  0
 32 36  1  0  0  0  0
 33 64  1  0  0  0  0
 34 37  1  0  0  0  0
 34 65  1  0  0  0  0
 35 38  2  0  0  0  0
 35 66  1  0  0  0  0
 37 39  2  0  0  0  0
 37 68  1  0  0  0  0
 38 39  1  0  0  0  0
 38 69  1  0  0  0  0
 39 70  1  0  0  0  0
 40 71  1  0  0  0  0
 40 72  1  0  0  0  0
 40 73  1  0  0  0  0
M  END
> <PUBCHEM_COMPOUND_CID>
135423438

> <PUBCHEM_COMPOUND_CANONICALIZED>
1

> <PUBCHEM_CACTVS_COMPLEXITY>
892

> <PUBCHEM_CACTVS_HBOND_ACCEPTOR>
7

> <PUBCHEM_CACTVS_HBOND_DONOR>
2

> <PUBCHEM_CACTVS_ROTATABLE_BOND>
8

> <PUBCHEM_CACTVS_SUBSKEYS>
AAADcfB7uAAAAAAAAAAAAAAAAAAAAWAAAAA8YMEAAAAAAFgB9AAAHgAQCAAADAjBngYyzPPJlgCoAyXyXACCgCAlIiAImSG8bN0IZvLCtbuUcQhk1hHI+Ye8yPCOwACAQAACAACAAQCAAAQAAAAAAAAAAA==

> <PUBCHEM_IUPAC_OPENEYE_NAME>
methyl 2-hydroxy-3-[N-[4-[methyl-[2-(4-methylpiperazin-1-yl)acetyl]amino]phenyl]-C-phenyl-carbonimidoyl]-1H-indole-6-carboxylate

> <PUBCHEM_IUPAC_CAS_NAME>
2-hydroxy-3-[[4-[methyl-[2-(4-methyl-1-piperazinyl)-1-oxoethyl]amino]phenyl]imino-phenylmethyl]-1H-indole-6-carboxylic acid methyl ester

> <PUBCHEM_IUPAC_NAME_MARKUP>
methyl 2-hydroxy-3-[<I>N</I>-[4-[methyl-[2-(4-methylpiperazin-1-yl)acetyl]amino]phenyl]-<I>C</I>-phenylcarbonimidoyl]-1<I>H</I>-indole-6-carboxylate

> <PUBCHEM_IUPAC_NAME>
methyl 2-hydroxy-3-[N-[4-[methyl-[2-(4-methylpiperazin-1-yl)acetyl]amino]phenyl]-C-phenylcarbonimidoyl]-1H-indole-6-carboxylate

> <PUBCHEM_IUPAC_SYSTEMATIC_NAME>
methyl 3-[N-[4-[methyl-[2-(4-methylpiperazin-1-yl)ethanoyl]amino]phenyl]-C-phenyl-carbonimidoyl]-2-oxidanyl-1H-indole-6-carboxylate

> <PUBCHEM_IUPAC_TRADITIONAL_NAME>
2-hydroxy-3-[N-[4-[methyl-[2-(4-methylpiperazino)acetyl]amino]phenyl]-C-phenyl-carbonimidoyl]-1H-indole-6-carboxylic acid methyl ester

> <PUBCHEM_IUPAC_INCHI>
InChI=1S/C31H33N5O4/c1-34-15-17-36(18-16-34)20-27(37)35(2)24-12-10-23(11-13-24)32-29(21-7-5-4-6-8-21)28-25-14-9-22(31(39)40-3)19-26(25)33-30(28)38/h4-14,19,33,38H,15-18,20H2,1-3H3

> <PUBCHEM_IUPAC_INCHIKEY>
CPMDPSXJELVGJG-UHFFFAOYSA-N

> <PUBCHEM_XLOGP3_AA>
4.3

> <PUBCHEM_EXACT_MASS>
539.253255

> <PUBCHEM_MOLECULAR_FORMULA>
C31H33N5O4

> <PUBCHEM_MOLECULAR_WEIGHT>
539.6

> <PUBCHEM_OPENEYE_CAN_SMILES>
CN1CCN(CC1)CC(=O)N(C)C2=CC=C(C=C2)N=C(C3=CC=CC=C3)C4=C(NC5=C4C=CC(=C5)C(=O)OC)O

> <PUBCHEM_OPENEYE_ISO_SMILES>
CN1CCN(CC1)CC(=O)N(C)C2=CC=C(C=C2)N=C(C3=CC=CC=C3)C4=C(NC5=C4C=CC(=C5)C(=O)OC)O

> <PUBCHEM_CACTVS_TPSA>
102

> <PUBCHEM_MONOISOTOPIC_WEIGHT>
539.253255

> <PUBCHEM_TOTAL_CHARGE>
0

> <PUBCHEM_HEAVY_ATOM_COUNT>
40

> <PUBCHEM_ATOM_DEF_STEREO_COUNT>
0

> <PUBCHEM_ATOM_UDEF_STEREO_COUNT>
0

> <PUBCHEM_BOND_DEF_STEREO_COUNT>
0

> <PUBCHEM_BOND_UDEF_STEREO_COUNT>
0

> <PUBCHEM_ISOTOPIC_ATOM_COUNT>
0

> <PUBCHEM_COMPONENT_COUNT>
1

> <PUBCHEM_CACTVS_TAUTO_COUNT>
-1

> <PUBCHEM_COORDINATE_TYPE>
1
5
255

> <PUBCHEM_BONDANNOTATIONS>
17  22  8
17  23  8
19  20  8
19  25  8
20  21  8
20  29  8
21  30  8
22  27  8
23  28  8
26  27  8
26  28  8
29  33  8
30  32  8
31  34  8
31  35  8
32  33  8
34  37  8
35  38  8
37  39  8
38  39  8
8  21  8
8  25  8

$$$$
