135460973
  -OEChem-05242006142D

 47 49  0     1  0  0  0  0  0999 V2000
    9.8781    2.1170    0.0000 P   0  0  3  0  0  0  0  0  0  0  0  0
   11.6010    2.2950    0.0000 P   0  0  0  0  0  0  0  0  0  0  0  0
    7.3435    0.3525    0.0000 O   0  0  0  0  0  0  0  0  0  0  0  0
    4.8055    0.8569    0.0000 O   0  0  0  0  0  0  0  0  0  0  0  0
    6.0873    2.6148    0.0000 O   0  0  0  0  0  0  0  0  0  0  0  0
    9.0681    1.5306    0.0000 O   0  0  0  0  0  0  0  0  0  0  0  0
    4.2690   -3.7101    0.0000 O   0  0  0  0  0  0  0  0  0  0  0  0
   10.6882    2.7034    0.0000 O   0  0  0  0  0  0  0  0  0  0  0  0
   10.4645    1.3069    0.0000 O   0  0  0  0  0  0  0  0  0  0  0  0
    9.2917    2.9270    0.0000 O   0  0  0  0  0  0  0  0  0  0  0  0
   12.5138    1.8867    0.0000 O   0  0  0  0  0  0  0  0  0  0  0  0
   12.0093    3.2079    0.0000 O   0  0  0  0  0  0  0  0  0  0  0  0
   11.1927    1.3822    0.0000 O   0  0  0  0  0  0  0  0  0  0  0  0
    6.0812   -0.9054    0.0000 N   0  3  0  0  0  0  0  0  0  0  0  0
    6.0812   -2.5148    0.0000 N   0  0  0  0  0  0  0  0  0  0  0  0
    4.2690   -0.7101    0.0000 N   0  0  0  0  0  0  0  0  0  0  0  0
    3.4030   -2.2101    0.0000 N   0  0  0  0  0  0  0  0  0  0  0  0
    2.5369   -0.7101    0.0000 N   0  0  0  0  0  0  0  0  0  0  0  0
    6.3919    0.0452    0.0000 C   0  0  1  0  0  0  0  0  0  0  0  0
    5.8055    0.8552    0.0000 C   0  0  1  0  0  0  0  0  0  0  0  0
    6.3947    1.6632    0.0000 C   0  0  1  0  0  0  0  0  0  0  0  0
    7.3452    1.3525    0.0000 C   0  0  1  0  0  0  0  0  0  0  0  0
    8.1552    1.9389    0.0000 C   0  0  0  0  0  0  0  0  0  0  0  0
    5.1350   -1.2101    0.0000 C   0  0  0  0  0  0  0  0  0  0  0  0
    6.6648   -1.7101    0.0000 C   0  0  0  0  0  0  0  0  0  0  0  0
    5.1350   -2.2101    0.0000 C   0  0  0  0  0  0  0  0  0  0  0  0
    4.2690   -2.7101    0.0000 C   0  0  0  0  0  0  0  0  0  0  0  0
    6.3919   -3.4654    0.0000 C   0  0  0  0  0  0  0  0  0  0  0  0
    3.4030   -1.2101    0.0000 C   0  0  0  0  0  0  0  0  0  0  0  0
    5.7794   -0.0508    0.0000 H   0  0  0  0  0  0  0  0  0  0  0  0
    5.5231    0.3032    0.0000 H   0  0  0  0  0  0  0  0  0  0  0  0
    5.7825    1.7612    0.0000 H   0  0  0  0  0  0  0  0  0  0  0  0
    7.8972    1.0701    0.0000 H   0  0  0  0  0  0  0  0  0  0  0  0
    8.5028    2.4523    0.0000 H   0  0  0  0  0  0  0  0  0  0  0  0
    7.7100    2.3704    0.0000 H   0  0  0  0  0  0  0  0  0  0  0  0
    7.2848   -1.7101    0.0000 H   0  0  0  0  0  0  0  0  0  0  0  0
    4.4964    1.3944    0.0000 H   0  0  0  0  0  0  0  0  0  0  0  0
    6.5030    3.0748    0.0000 H   0  0  0  0  0  0  0  0  0  0  0  0
    5.8026   -3.6580    0.0000 H   0  0  0  0  0  0  0  0  0  0  0  0
    6.5845   -4.0547    0.0000 H   0  0  0  0  0  0  0  0  0  0  0  0
    6.9812   -3.2727    0.0000 H   0  0  0  0  0  0  0  0  0  0  0  0
    2.8660   -2.5201    0.0000 H   0  0  0  0  0  0  0  0  0  0  0  0
    2.0000   -1.0201    0.0000 H   0  0  0  0  0  0  0  0  0  0  0  0
    2.5369   -0.0901    0.0000 H   0  0  0  0  0  0  0  0  0  0  0  0
   10.2113    0.7410    0.0000 H   0  0  0  0  0  0  0  0  0  0  0  0
   13.0161    2.2503    0.0000 H   0  0  0  0  0  0  0  0  0  0  0  0
   11.6458    3.7101    0.0000 H   0  0  0  0  0  0  0  0  0  0  0  0
  1  6  1  0  0  0  0
  1  8  1  0  0  0  0
  1  9  1  0  0  0  0
  1 10  2  0  0  0  0
  2  8  1  0  0  0  0
  2 11  1  0  0  0  0
  2 12  1  0  0  0  0
  2 13  2  0  0  0  0
  3 19  1  0  0  0  0
  3 22  1  0  0  0  0
 20  4  1  6  0  0  0
  4 37  1  0  0  0  0
 21  5  1  6  0  0  0
  5 38  1  0  0  0  0
  6 23  1  0  0  0  0
  7 27  2  0  0  0  0
  9 45  1  0  0  0  0
 11 46  1  0  0  0  0
 12 47  1  0  0  0  0
 19 14  1  1  0  0  0
 14 24  1  0  0  0  0
 14 25  2  0  0  0  0
 15 25  1  0  0  0  0
 15 26  1  0  0  0  0
 15 28  1  0  0  0  0
 16 24  1  0  0  0  0
 16 29  2  0  0  0  0
 17 27  1  0  0  0  0
 17 29  1  0  0  0  0
 17 42  1  0  0  0  0
 18 29  1  0  0  0  0
 18 43  1  0  0  0  0
 18 44  1  0  0  0  0
 19 20  1  0  0  0  0
 19 30  1  0  0  0  0
 20 21  1  0  0  0  0
 20 31  1  0  0  0  0
 21 22  1  0  0  0  0
 21 32  1  0  0  0  0
 22 23  1  1  0  0  0
 22 33  1  0  0  0  0
 23 34  1  0  0  0  0
 23 35  1  0  0  0  0
 24 26  2  0  0  0  0
 25 36  1  0  0  0  0
 26 27  1  0  0  0  0
 28 39  1  0  0  0  0
 28 40  1  0  0  0  0
 28 41  1  0  0  0  0
M  CHG  1  14   1
M  END
> <PUBCHEM_COMPOUND_CID>
135460973

> <PUBCHEM_COMPOUND_CANONICALIZED>
1

> <PUBCHEM_CACTVS_COMPLEXITY>
791

> <PUBCHEM_CACTVS_HBOND_ACCEPTOR>
12

> <PUBCHEM_CACTVS_HBOND_DONOR>
7

> <PUBCHEM_CACTVS_ROTATABLE_BOND>
6

> <PUBCHEM_CACTVS_SUBSKEYS>
AAADceBzvAMAAAAAAAAAAAAAAAAAAWJAAAAgAAAAAAAAAEABgAAAHgAQCCAACBzhlgYHsBfMFxCoQQdxdICAgC0XEKABUAGoVECDWApAyCAeQIgPAQLTAGDwMAIAAAAAAAAAAAAAAAAAAAAAAAAAAAAAAA==

> <PUBCHEM_IUPAC_OPENEYE_NAME>
[(2R,3S,4R,5R)-5-(2-amino-7-methyl-6-oxo-1H-purin-9-ium-9-yl)-3,4-dihydroxy-tetrahydrofuran-2-yl]methyl phosphono hydrogen phosphate

> <PUBCHEM_IUPAC_CAS_NAME>
[(2R,3S,4R,5R)-5-(2-amino-7-methyl-6-oxo-1H-purin-9-ium-9-yl)-3,4-dihydroxy-2-oxolanyl]methyl phosphono hydrogen phosphate

> <PUBCHEM_IUPAC_NAME_MARKUP>
[(2<I>R</I>,3<I>S</I>,4<I>R</I>,5<I>R</I>)-5-(2-amino-7-methyl-6-oxo-1<I>H</I>-purin-9-ium-9-yl)-3,4-dihydroxyoxolan-2-yl]methyl phosphono hydrogen phosphate

> <PUBCHEM_IUPAC_NAME>
[(2R,3S,4R,5R)-5-(2-amino-7-methyl-6-oxo-1H-purin-9-ium-9-yl)-3,4-dihydroxyoxolan-2-yl]methyl phosphono hydrogen phosphate

> <PUBCHEM_IUPAC_SYSTEMATIC_NAME>
[(2R,3S,4R,5R)-5-(2-azanyl-7-methyl-6-oxidanylidene-1H-purin-9-ium-9-yl)-3,4-bis(oxidanyl)oxolan-2-yl]methyl phosphono hydrogen phosphate

> <PUBCHEM_IUPAC_TRADITIONAL_NAME>
[(2R,3S,4R,5R)-5-(2-amino-6-keto-7-methyl-1H-purin-9-ium-9-yl)-3,4-dihydroxy-tetrahydrofuran-2-yl]methyl phosphono hydrogen phosphate

> <PUBCHEM_IUPAC_INCHI>
InChI=1S/C11H17N5O11P2/c1-15-3-16(8-5(15)9(19)14-11(12)13-8)10-7(18)6(17)4(26-10)2-25-29(23,24)27-28(20,21)22/h3-4,6-7,10,17-18H,2H2,1H3,(H5-,12,13,14,19,20,21,22,23,24)/p+1/t4-,6-,7-,10-/m1/s1

> <PUBCHEM_IUPAC_INCHIKEY>
SBASPRRECYVBRF-KQYNXXCUSA-O

> <PUBCHEM_XLOGP3>
-4.5

> <PUBCHEM_EXACT_MASS>
458.047805

> <PUBCHEM_MOLECULAR_FORMULA>
C11H18N5O11P2+

> <PUBCHEM_MOLECULAR_WEIGHT>
458.24

> <PUBCHEM_OPENEYE_CAN_SMILES>
CN1C=[N+](C2=C1C(=O)NC(=N2)N)C3C(C(C(O3)COP(=O)(O)OP(=O)(O)O)O)O

> <PUBCHEM_OPENEYE_ISO_SMILES>
CN1C=[N+](C2=C1C(=O)NC(=N2)N)[C@H]3[C@@H]([C@@H]([C@H](O3)COP(=O)(O)OP(=O)(O)O)O)O

> <PUBCHEM_CACTVS_TPSA>
239

> <PUBCHEM_MONOISOTOPIC_WEIGHT>
458.047805

> <PUBCHEM_TOTAL_CHARGE>
1

> <PUBCHEM_HEAVY_ATOM_COUNT>
29

> <PUBCHEM_ATOM_DEF_STEREO_COUNT>
4

> <PUBCHEM_ATOM_UDEF_STEREO_COUNT>
0

> <PUBCHEM_BOND_DEF_STEREO_COUNT>
0

> <PUBCHEM_BOND_UDEF_STEREO_COUNT>
0

> <PUBCHEM_ISOTOPIC_ATOM_COUNT>
0

> <PUBCHEM_COMPONENT_COUNT>
1

> <PUBCHEM_CACTVS_TAUTO_COUNT>
-1

> <PUBCHEM_COORDINATE_TYPE>
1
5
255

> <PUBCHEM_BONDANNOTATIONS>
19  14  5
14  24  8
14  25  8
15  25  8
15  26  8
16  24  8
16  29  8
17  27  8
17  29  8
22  23  5
24  26  8
26  27  8
20  4  6
21  5  6

$$$$
