135415790
  -OEChem-05242006142D

 81 86  0     1  0  0  0  0  0999 V2000
    9.8781    0.8809    0.0000 P   0  0  3  0  0  0  0  0  0  0  0  0
   13.3239    1.2370    0.0000 P   0  0  3  0  0  0  0  0  0  0  0  0
   11.6010    1.0589    0.0000 P   0  0  3  0  0  0  0  0  0  0  0  0
    7.3435   -0.8836    0.0000 O   0  0  0  0  0  0  0  0  0  0  0  0
   16.8073    1.6908    0.0000 O   0  0  0  0  0  0  0  0  0  0  0  0
    4.8055   -0.3792    0.0000 O   0  0  0  0  0  0  0  0  0  0  0  0
    6.0873    1.3787    0.0000 O   0  0  0  0  0  0  0  0  0  0  0  0
   17.1208    4.2594    0.0000 O   0  0  0  0  0  0  0  0  0  0  0  0
   15.0505    3.5906    0.0000 O   0  0  0  0  0  0  0  0  0  0  0  0
    9.0681    0.2945    0.0000 O   0  0  0  0  0  0  0  0  0  0  0  0
   14.1339    1.8234    0.0000 O   0  0  0  0  0  0  0  0  0  0  0  0
   10.6882    1.4673    0.0000 O   0  0  0  0  0  0  0  0  0  0  0  0
   12.5138    0.6506    0.0000 O   0  0  0  0  0  0  0  0  0  0  0  0
    4.2690   -4.9462    0.0000 O   0  0  0  0  0  0  0  0  0  0  0  0
   10.4645    0.0708    0.0000 O   0  0  0  0  0  0  0  0  0  0  0  0
   13.9103    0.4270    0.0000 O   0  0  0  0  0  0  0  0  0  0  0  0
    9.2917    1.6909    0.0000 O   0  0  0  0  0  0  0  0  0  0  0  0
   12.7375    2.0470    0.0000 O   0  0  0  0  0  0  0  0  0  0  0  0
   12.0093    1.9718    0.0000 O   0  0  0  0  0  0  0  0  0  0  0  0
   11.1927    0.1461    0.0000 O   0  0  0  0  0  0  0  0  0  0  0  0
    6.0812   -2.1415    0.0000 N   0  3  0  0  0  0  0  0  0  0  0  0
   18.3965    2.4971    0.0000 N   0  0  0  0  0  0  0  0  0  0  0  0
    6.0812   -3.7509    0.0000 N   0  0  0  0  0  0  0  0  0  0  0  0
    4.2690   -1.9462    0.0000 N   0  0  0  0  0  0  0  0  0  0  0  0
   19.9254    1.9944    0.0000 N   0  0  0  0  0  0  0  0  0  0  0  0
    3.4030   -3.4462    0.0000 N   0  0  0  0  0  0  0  0  0  0  0  0
   18.7770    4.2796    0.0000 N   0  0  0  0  0  0  0  0  0  0  0  0
   20.4724    4.6339    0.0000 N   0  0  0  0  0  0  0  0  0  0  0  0
    2.5369   -1.9462    0.0000 N   0  0  0  0  0  0  0  0  0  0  0  0
   21.6269    3.3427    0.0000 N   0  0  0  0  0  0  0  0  0  0  0  0
    6.3919   -1.1910    0.0000 C   0  0  1  0  0  0  0  0  0  0  0  0
    5.8055   -0.3809    0.0000 C   0  0  1  0  0  0  0  0  0  0  0  0
    6.3947    0.4271    0.0000 C   0  0  1  0  0  0  0  0  0  0  0  0
    7.3452    0.1164    0.0000 C   0  0  1  0  0  0  0  0  0  0  0  0
   16.8101    3.3088    0.0000 C   0  0  2  0  0  0  0  0  0  0  0  0
   15.8585    3.0015    0.0000 C   0  0  1  0  0  0  0  0  0  0  0  0
   17.3965    2.4988    0.0000 C   0  0  1  0  0  0  0  0  0  0  0  0
   15.8568    2.0015    0.0000 C   0  0  1  0  0  0  0  0  0  0  0  0
    8.1552    0.7028    0.0000 C   0  0  0  0  0  0  0  0  0  0  0  0
   15.0467    1.4151    0.0000 C   0  0  0  0  0  0  0  0  0  0  0  0
    5.1350   -2.4462    0.0000 C   0  0  0  0  0  0  0  0  0  0  0  0
    6.6648   -2.9462    0.0000 C   0  0  0  0  0  0  0  0  0  0  0  0
    5.1350   -3.4462    0.0000 C   0  0  0  0  0  0  0  0  0  0  0  0
   18.9815    3.3008    0.0000 C   0  0  0  0  0  0  0  0  0  0  0  0
   18.9787    1.6913    0.0000 C   0  0  0  0  0  0  0  0  0  0  0  0
   19.9315    2.9885    0.0000 C   0  0  0  0  0  0  0  0  0  0  0  0
    4.2690   -3.9462    0.0000 C   0  0  0  0  0  0  0  0  0  0  0  0
    6.3919   -4.7014    0.0000 C   0  0  0  0  0  0  0  0  0  0  0  0
    3.4030   -2.4462    0.0000 C   0  0  0  0  0  0  0  0  0  0  0  0
   20.6769    3.6550    0.0000 C   0  0  0  0  0  0  0  0  0  0  0  0
   19.5224    4.9462    0.0000 C   0  0  0  0  0  0  0  0  0  0  0  0
    5.7794   -1.2869    0.0000 H   0  0  0  0  0  0  0  0  0  0  0  0
    5.5231   -0.9329    0.0000 H   0  0  0  0  0  0  0  0  0  0  0  0
    5.7825    0.5251    0.0000 H   0  0  0  0  0  0  0  0  0  0  0  0
    7.8972   -0.1660    0.0000 H   0  0  0  0  0  0  0  0  0  0  0  0
   16.3724    3.7480    0.0000 H   0  0  0  0  0  0  0  0  0  0  0  0
   15.3056    2.7209    0.0000 H   0  0  0  0  0  0  0  0  0  0  0  0
   17.6789    3.0507    0.0000 H   0  0  0  0  0  0  0  0  0  0  0  0
   15.9527    1.3889    0.0000 H   0  0  0  0  0  0  0  0  0  0  0  0
    8.5028    1.2162    0.0000 H   0  0  0  0  0  0  0  0  0  0  0  0
    7.7100    1.1343    0.0000 H   0  0  0  0  0  0  0  0  0  0  0  0
   14.6992    0.9017    0.0000 H   0  0  0  0  0  0  0  0  0  0  0  0
   15.4920    0.9836    0.0000 H   0  0  0  0  0  0  0  0  0  0  0  0
    7.2848   -2.9462    0.0000 H   0  0  0  0  0  0  0  0  0  0  0  0
    4.4964    0.1583    0.0000 H   0  0  0  0  0  0  0  0  0  0  0  0
    6.5030    1.8387    0.0000 H   0  0  0  0  0  0  0  0  0  0  0  0
   16.7067    4.7208    0.0000 H   0  0  0  0  0  0  0  0  0  0  0  0
   15.1164    4.2071    0.0000 H   0  0  0  0  0  0  0  0  0  0  0  0
   18.7851    1.1023    0.0000 H   0  0  0  0  0  0  0  0  0  0  0  0
    5.8026   -4.8941    0.0000 H   0  0  0  0  0  0  0  0  0  0  0  0
    6.5845   -5.2908    0.0000 H   0  0  0  0  0  0  0  0  0  0  0  0
    6.9812   -4.5088    0.0000 H   0  0  0  0  0  0  0  0  0  0  0  0
    2.8660   -3.7562    0.0000 H   0  0  0  0  0  0  0  0  0  0  0  0
   19.3956    5.5531    0.0000 H   0  0  0  0  0  0  0  0  0  0  0  0
    2.0000   -2.2562    0.0000 H   0  0  0  0  0  0  0  0  0  0  0  0
    2.5369   -1.3262    0.0000 H   0  0  0  0  0  0  0  0  0  0  0  0
   10.2113   -0.4951    0.0000 H   0  0  0  0  0  0  0  0  0  0  0  0
   13.6571   -0.1390    0.0000 H   0  0  0  0  0  0  0  0  0  0  0  0
   22.0891    3.7560    0.0000 H   0  0  0  0  0  0  0  0  0  0  0  0
   21.7537    2.7358    0.0000 H   0  0  0  0  0  0  0  0  0  0  0  0
   11.6458    2.4740    0.0000 H   0  0  0  0  0  0  0  0  0  0  0  0
  1 10  1  0  0  0  0
  1 12  1  0  0  0  0
  1 15  1  0  0  0  0
  1 17  2  0  0  0  0
  2 11  1  0  0  0  0
  2 13  1  0  0  0  0
  2 16  1  0  0  0  0
  2 18  2  0  0  0  0
  3 12  1  0  0  0  0
  3 13  1  0  0  0  0
  3 19  1  0  0  0  0
  3 20  2  0  0  0  0
  4 31  1  0  0  0  0
  4 34  1  0  0  0  0
  5 37  1  0  0  0  0
  5 38  1  0  0  0  0
 32  6  1  6  0  0  0
  6 65  1  0  0  0  0
 33  7  1  6  0  0  0
  7 66  1  0  0  0  0
 35  8  1  1  0  0  0
  8 67  1  0  0  0  0
 36  9  1  1  0  0  0
  9 68  1  0  0  0  0
 10 39  1  0  0  0  0
 11 40  1  0  0  0  0
 14 47  2  0  0  0  0
 15 77  1  0  0  0  0
 16 78  1  0  0  0  0
 19 81  1  0  0  0  0
 31 21  1  1  0  0  0
 21 41  1  0  0  0  0
 21 42  2  0  0  0  0
 37 22  1  6  0  0  0
 22 44  1  0  0  0  0
 22 45  1  0  0  0  0
 23 42  1  0  0  0  0
 23 43  1  0  0  0  0
 23 48  1  0  0  0  0
 24 41  1  0  0  0  0
 24 49  2  0  0  0  0
 25 45  2  0  0  0  0
 25 46  1  0  0  0  0
 26 47  1  0  0  0  0
 26 49  1  0  0  0  0
 26 73  1  0  0  0  0
 27 44  2  0  0  0  0
 27 51  1  0  0  0  0
 28 50  1  0  0  0  0
 28 51  2  0  0  0  0
 29 49  1  0  0  0  0
 29 75  1  0  0  0  0
 29 76  1  0  0  0  0
 30 50  1  0  0  0  0
 30 79  1  0  0  0  0
 30 80  1  0  0  0  0
 31 32  1  0  0  0  0
 31 52  1  0  0  0  0
 32 33  1  0  0  0  0
 32 53  1  0  0  0  0
 33 34  1  0  0  0  0
 33 54  1  0  0  0  0
 34 39  1  1  0  0  0
 34 55  1  0  0  0  0
 35 36  1  0  0  0  0
 35 37  1  0  0  0  0
 35 56  1  0  0  0  0
 36 38  1  0  0  0  0
 36 57  1  0  0  0  0
 37 58  1  0  0  0  0
 38 40  1  6  0  0  0
 38 59  1  0  0  0  0
 39 60  1  0  0  0  0
 39 61  1  0  0  0  0
 40 62  1  0  0  0  0
 40 63  1  0  0  0  0
 41 43  2  0  0  0  0
 42 64  1  0  0  0  0
 43 47  1  0  0  0  0
 44 46  1  0  0  0  0
 45 69  1  0  0  0  0
 46 50  2  0  0  0  0
 48 70  1  0  0  0  0
 48 71  1  0  0  0  0
 48 72  1  0  0  0  0
 51 74  1  0  0  0  0
M  CHG  1  21   1
M  END
> <PUBCHEM_COMPOUND_CID>
135415790

> <PUBCHEM_COMPOUND_CANONICALIZED>
1

> <PUBCHEM_CACTVS_COMPLEXITY>
1500

> <PUBCHEM_CACTVS_HBOND_ACCEPTOR>
22

> <PUBCHEM_CACTVS_HBOND_DONOR>
10

> <PUBCHEM_CACTVS_ROTATABLE_BOND>
12

> <PUBCHEM_CACTVS_SUBSKEYS>
AAADceB7/gMAAAAAAAAAAAAAAAAAAWLEiQAsQAAAAAAAAFgB/gAAHgAQCCAACBzhlwYH8L/MFxCoQQdxdICAgC0XEKABUCGoVFCDWApAyGAeRIgPAQLTAGDwMAIAAAAAAAAAAAAAAAAAAAAAAAAAAAAAAA==

> <PUBCHEM_IUPAC_OPENEYE_NAME>
[[(2R,3S,4R,5R)-5-(2-amino-7-methyl-6-oxo-1H-purin-9-ium-9-yl)-3,4-dihydroxy-tetrahydrofuran-2-yl]methoxy-hydroxy-phosphoryl] [[(2R,3S,4R,5R)-5-(6-aminopurin-9-yl)-3,4-dihydroxy-tetrahydrofuran-2-yl]methoxy-hydroxy-phosphoryl] hydrogen phosphate

> <PUBCHEM_IUPAC_CAS_NAME>
[[(2R,3S,4R,5R)-5-(2-amino-7-methyl-6-oxo-1H-purin-9-ium-9-yl)-3,4-dihydroxy-2-oxolanyl]methoxy-hydroxyphosphoryl] [[(2R,3S,4R,5R)-5-(6-aminopurin-9-yl)-3,4-dihydroxy-2-oxolanyl]methoxy-hydroxyphosphoryl] hydrogen phosphate

> <PUBCHEM_IUPAC_NAME_MARKUP>
[[(2<I>R</I>,3<I>S</I>,4<I>R</I>,5<I>R</I>)-5-(2-amino-7-methyl-6-oxo-1<I>H</I>-purin-9-ium-9-yl)-3,4-dihydroxyoxolan-2-yl]methoxy-hydroxyphosphoryl] [[(2<I>R</I>,3<I>S</I>,4<I>R</I>,5<I>R</I>)-5-(6-aminopurin-9-yl)-3,4-dihydroxyoxolan-2-yl]methoxy-hydroxyphosphoryl] hydrogen phosphate

> <PUBCHEM_IUPAC_NAME>
[[(2R,3S,4R,5R)-5-(2-amino-7-methyl-6-oxo-1H-purin-9-ium-9-yl)-3,4-dihydroxyoxolan-2-yl]methoxy-hydroxyphosphoryl] [[(2R,3S,4R,5R)-5-(6-aminopurin-9-yl)-3,4-dihydroxyoxolan-2-yl]methoxy-hydroxyphosphoryl] hydrogen phosphate

> <PUBCHEM_IUPAC_SYSTEMATIC_NAME>
[[(2R,3S,4R,5R)-5-(6-aminopurin-9-yl)-3,4-bis(oxidanyl)oxolan-2-yl]methoxy-oxidanyl-phosphoryl] [[(2R,3S,4R,5R)-5-(2-azanyl-7-methyl-6-oxidanylidene-1H-purin-9-ium-9-yl)-3,4-bis(oxidanyl)oxolan-2-yl]methoxy-oxidanyl-phosphoryl] hydrogen phosphate

> <PUBCHEM_IUPAC_TRADITIONAL_NAME>
[[(2R,3S,4R,5R)-5-adenin-9-yl-3,4-dihydroxy-tetrahydrofuran-2-yl]methoxy-hydroxy-phosphoryl] [[(2R,3S,4R,5R)-5-(2-amino-6-keto-7-methyl-1H-purin-9-ium-9-yl)-3,4-dihydroxy-tetrahydrofuran-2-yl]methoxy-hydroxy-phosphoryl] hydrogen phosphate

> <PUBCHEM_IUPAC_INCHI>
InChI=1S/C21H29N10O17P3/c1-29-6-31(17-10(29)18(36)28-21(23)27-17)20-14(35)12(33)8(46-20)3-44-50(39,40)48-51(41,42)47-49(37,38)43-2-7-11(32)13(34)19(45-7)30-5-26-9-15(22)24-4-25-16(9)30/h4-8,11-14,19-20,32-35H,2-3H2,1H3,(H7-,22,23,24,25,27,28,36,37,38,39,40,41,42)/p+1/t7-,8-,11-,12-,13-,14-,19-,20-/m1/s1

> <PUBCHEM_IUPAC_INCHIKEY>
QQOHNVHGNZYSBP-XPWFQUROSA-O

> <PUBCHEM_XLOGP3_AA>
-7.9

> <PUBCHEM_EXACT_MASS>
787.100326

> <PUBCHEM_MOLECULAR_FORMULA>
C21H30N10O17P3+

> <PUBCHEM_MOLECULAR_WEIGHT>
787.4

> <PUBCHEM_OPENEYE_CAN_SMILES>
CN1C=[N+](C2=C1C(=O)NC(=N2)N)C3C(C(C(O3)COP(=O)(O)OP(=O)(O)OP(=O)(O)OCC4C(C(C(O4)N5C=NC6=C(N=CN=C65)N)O)O)O)O

> <PUBCHEM_OPENEYE_ISO_SMILES>
CN1C=[N+](C2=C1C(=O)NC(=N2)N)[C@H]3[C@@H]([C@@H]([C@H](O3)COP(=O)(O)OP(=O)(O)OP(=O)(O)OC[C@@H]4[C@H]([C@H]([C@@H](O4)N5C=NC6=C(N=CN=C65)N)O)O)O)O

> <PUBCHEM_CACTVS_TPSA>
394

> <PUBCHEM_MONOISOTOPIC_WEIGHT>
787.100326

> <PUBCHEM_TOTAL_CHARGE>
1

> <PUBCHEM_HEAVY_ATOM_COUNT>
51

> <PUBCHEM_ATOM_DEF_STEREO_COUNT>
8

> <PUBCHEM_ATOM_UDEF_STEREO_COUNT>
0

> <PUBCHEM_BOND_DEF_STEREO_COUNT>
0

> <PUBCHEM_BOND_UDEF_STEREO_COUNT>
0

> <PUBCHEM_ISOTOPIC_ATOM_COUNT>
0

> <PUBCHEM_COMPONENT_COUNT>
1

> <PUBCHEM_CACTVS_TAUTO_COUNT>
-1

> <PUBCHEM_COORDINATE_TYPE>
1
5
255

> <PUBCHEM_BONDANNOTATIONS>
31  21  5
21  41  8
21  42  8
37  22  6
22  44  8
22  45  8
23  42  8
23  43  8
24  41  8
24  49  8
25  45  8
25  46  8
26  47  8
26  49  8
27  44  8
27  51  8
28  50  8
28  51  8
34  39  5
38  40  6
41  43  8
43  47  8
44  46  8
46  50  8
32  6  6
33  7  6
35  8  5
36  9  5

$$$$
