135565962
  -OEChem-05242006142D

 52 55  0     0  0  0  0  0  0999 V2000
    6.8594    3.0057    0.0000 P   0  0  0  0  0  0  0  0  0  0  0  0
    7.0673    2.0276    0.0000 O   0  0  0  0  0  0  0  0  0  0  0  0
    3.6789    1.3073    0.0000 O   0  0  0  0  0  0  0  0  0  0  0  0
    3.0778   -3.0284    0.0000 O   0  0  0  0  0  0  0  0  0  0  0  0
    6.6515    3.9839    0.0000 O   0  0  0  0  0  0  0  0  0  0  0  0
    7.8376    3.2136    0.0000 O   0  0  0  0  0  0  0  0  0  0  0  0
    5.8813    2.7978    0.0000 O   0  0  0  0  0  0  0  0  0  0  0  0
    4.1993   -1.6435    0.0000 N   0  0  0  0  0  0  0  0  0  0  0  0
    7.7436   -3.4482    0.0000 N   0  0  0  0  0  0  0  0  0  0  0  0
    3.1166   -0.4410    0.0000 N   0  0  0  0  0  0  0  0  0  0  0  0
    2.6166   -1.3071    0.0000 N   0  0  0  0  0  0  0  0  0  0  0  0
    7.4832    0.0713    0.0000 C   0  0  0  0  0  0  0  0  0  0  0  0
    6.5321    0.3803    0.0000 C   0  0  0  0  0  0  0  0  0  0  0  0
    4.8379    0.0202    0.0000 C   0  0  0  0  0  0  0  0  0  0  0  0
    4.0948   -0.6490    0.0000 C   0  0  0  0  0  0  0  0  0  0  0  0
    5.7890   -0.2888    0.0000 C   0  0  0  0  0  0  0  0  0  0  0  0
    5.0653   -2.1435    0.0000 C   0  0  0  0  0  0  0  0  0  0  0  0
    6.7974   -2.1435    0.0000 C   0  0  0  0  0  0  0  0  0  0  0  0
    6.7974   -3.1435    0.0000 C   0  0  0  0  0  0  0  0  0  0  0  0
    6.3242    1.3584    0.0000 C   0  0  0  0  0  0  0  0  0  0  0  0
    5.9313   -1.6435    0.0000 C   0  0  0  0  0  0  0  0  0  0  0  0
    4.6300    0.9983    0.0000 C   0  0  0  0  0  0  0  0  0  0  0  0
    7.6911   -0.9069    0.0000 C   0  0  0  0  0  0  0  0  0  0  0  0
    8.2263    0.7404    0.0000 C   0  0  0  0  0  0  0  0  0  0  0  0
    5.3731    1.6675    0.0000 C   0  0  0  0  0  0  0  0  0  0  0  0
    5.0653   -3.1435    0.0000 C   0  0  0  0  0  0  0  0  0  0  0  0
    5.9313   -3.6435    0.0000 C   0  0  0  0  0  0  0  0  0  0  0  0
    3.2857   -2.0502    0.0000 C   0  0  0  0  0  0  0  0  0  0  0  0
    7.7436   -1.8387    0.0000 C   0  0  0  0  0  0  0  0  0  0  0  0
    8.3272   -2.6435    0.0000 C   0  0  0  0  0  0  0  0  0  0  0  0
    8.0542   -4.3987    0.0000 C   0  0  0  0  0  0  0  0  0  0  0  0
    7.0224   -0.3436    0.0000 H   0  0  0  0  0  0  0  0  0  0  0  0
    5.9179   -0.8953    0.0000 H   0  0  0  0  0  0  0  0  0  0  0  0
    5.9313   -1.0235    0.0000 H   0  0  0  0  0  0  0  0  0  0  0  0
    7.0846   -1.0358    0.0000 H   0  0  0  0  0  0  0  0  0  0  0  0
    7.8200   -1.5133    0.0000 H   0  0  0  0  0  0  0  0  0  0  0  0
    8.2975   -0.7780    0.0000 H   0  0  0  0  0  0  0  0  0  0  0  0
    8.6412    0.2797    0.0000 H   0  0  0  0  0  0  0  0  0  0  0  0
    8.6870    1.1553    0.0000 H   0  0  0  0  0  0  0  0  0  0  0  0
    7.8114    1.2012    0.0000 H   0  0  0  0  0  0  0  0  0  0  0  0
    5.2442    2.2739    0.0000 H   0  0  0  0  0  0  0  0  0  0  0  0
    4.5284   -3.4535    0.0000 H   0  0  0  0  0  0  0  0  0  0  0  0
    5.9313   -4.2635    0.0000 H   0  0  0  0  0  0  0  0  0  0  0  0
    7.9362   -1.2494    0.0000 H   0  0  0  0  0  0  0  0  0  0  0  0
    8.9472   -2.6435    0.0000 H   0  0  0  0  0  0  0  0  0  0  0  0
    2.0000   -1.3719    0.0000 H   0  0  0  0  0  0  0  0  0  0  0  0
    7.4649   -4.5913    0.0000 H   0  0  0  0  0  0  0  0  0  0  0  0
    8.2468   -4.9880    0.0000 H   0  0  0  0  0  0  0  0  0  0  0  0
    8.6436   -4.2061    0.0000 H   0  0  0  0  0  0  0  0  0  0  0  0
    3.5500    1.9138    0.0000 H   0  0  0  0  0  0  0  0  0  0  0  0
    7.1123    4.3987    0.0000 H   0  0  0  0  0  0  0  0  0  0  0  0
    8.2524    2.7529    0.0000 H   0  0  0  0  0  0  0  0  0  0  0  0
  1  2  1  0  0  0  0
  1  5  1  0  0  0  0
  1  6  1  0  0  0  0
  1  7  2  0  0  0  0
  2 20  1  0  0  0  0
  3 22  1  0  0  0  0
  3 50  1  0  0  0  0
  4 28  2  0  0  0  0
  5 51  1  0  0  0  0
  6 52  1  0  0  0  0
  8 15  1  0  0  0  0
  8 17  1  0  0  0  0
  8 28  1  0  0  0  0
  9 19  1  0  0  0  0
  9 30  1  0  0  0  0
  9 31  1  0  0  0  0
 10 11  1  0  0  0  0
 10 15  2  0  0  0  0
 11 28  1  0  0  0  0
 11 46  1  0  0  0  0
 12 13  1  0  0  0  0
 12 23  1  0  0  0  0
 12 24  1  0  0  0  0
 12 32  1  0  0  0  0
 13 16  1  0  0  0  0
 13 20  2  0  0  0  0
 14 15  1  0  0  0  0
 14 16  2  0  0  0  0
 14 22  1  0  0  0  0
 16 33  1  0  0  0  0
 17 21  2  0  0  0  0
 17 26  1  0  0  0  0
 18 19  2  0  0  0  0
 18 21  1  0  0  0  0
 18 29  1  0  0  0  0
 19 27  1  0  0  0  0
 20 25  1  0  0  0  0
 21 34  1  0  0  0  0
 22 25  2  0  0  0  0
 23 35  1  0  0  0  0
 23 36  1  0  0  0  0
 23 37  1  0  0  0  0
 24 38  1  0  0  0  0
 24 39  1  0  0  0  0
 24 40  1  0  0  0  0
 25 41  1  0  0  0  0
 26 27  2  0  0  0  0
 26 42  1  0  0  0  0
 27 43  1  0  0  0  0
 29 30  2  0  0  0  0
 29 44  1  0  0  0  0
 30 45  1  0  0  0  0
 31 47  1  0  0  0  0
 31 48  1  0  0  0  0
 31 49  1  0  0  0  0
M  END
> <PUBCHEM_COMPOUND_CID>
135565962

> <PUBCHEM_COMPOUND_CANONICALIZED>
1

> <PUBCHEM_CACTVS_COMPLEXITY>
773

> <PUBCHEM_CACTVS_HBOND_ACCEPTOR>
7

> <PUBCHEM_CACTVS_HBOND_DONOR>
4

> <PUBCHEM_CACTVS_ROTATABLE_BOND>
5

> <PUBCHEM_CACTVS_SUBSKEYS>
AAADceB7uAIAAAAAAAAAAAAAAAAAAWIAAAAwYAAAAAAAAFgB9AAAHgAYCCAADQzBngQ/xvNuExCoQzZndICSgCAxIiAP2CA+bJiIJ+LCmZOEcAhnzBfI2CeQ8PYOoACCSAAKAABAAQSQABQAAAAAAAAAAA==

> <PUBCHEM_IUPAC_OPENEYE_NAME>
[5-hydroxy-2-isopropyl-4-[4-(1-methylindol-5-yl)-5-oxo-1H-1,2,4-triazol-3-yl]phenyl] dihydrogen phosphate

> <PUBCHEM_IUPAC_CAS_NAME>
[5-hydroxy-4-[4-(1-methyl-5-indolyl)-5-oxo-1H-1,2,4-triazol-3-yl]-2-propan-2-ylphenyl] dihydrogen phosphate

> <PUBCHEM_IUPAC_NAME_MARKUP>
[5-hydroxy-4-[4-(1-methylindol-5-yl)-5-oxo-1<I>H</I>-1,2,4-triazol-3-yl]-2-propan-2-ylphenyl] dihydrogen phosphate

> <PUBCHEM_IUPAC_NAME>
[5-hydroxy-4-[4-(1-methylindol-5-yl)-5-oxo-1H-1,2,4-triazol-3-yl]-2-propan-2-ylphenyl] dihydrogen phosphate

> <PUBCHEM_IUPAC_SYSTEMATIC_NAME>
[4-[4-(1-methylindol-5-yl)-5-oxidanylidene-1H-1,2,4-triazol-3-yl]-5-oxidanyl-2-propan-2-yl-phenyl] dihydrogen phosphate

> <PUBCHEM_IUPAC_TRADITIONAL_NAME>
[5-hydroxy-2-isopropyl-4-[5-keto-4-(1-methylindol-5-yl)-1H-1,2,4-triazol-3-yl]phenyl] dihydrogen phosphate

> <PUBCHEM_IUPAC_INCHI>
InChI=1S/C20H21N4O6P/c1-11(2)14-9-15(17(25)10-18(14)30-31(27,28)29)19-21-22-20(26)24(19)13-4-5-16-12(8-13)6-7-23(16)3/h4-11,25H,1-3H3,(H,22,26)(H2,27,28,29)

> <PUBCHEM_IUPAC_INCHIKEY>
JNWFIPVDEINBAI-UHFFFAOYSA-N

> <PUBCHEM_XLOGP3_AA>
1.8

> <PUBCHEM_EXACT_MASS>
444.119871

> <PUBCHEM_MOLECULAR_FORMULA>
C20H21N4O6P

> <PUBCHEM_MOLECULAR_WEIGHT>
444.4

> <PUBCHEM_OPENEYE_CAN_SMILES>
CC(C)C1=C(C=C(C(=C1)C2=NNC(=O)N2C3=CC4=C(C=C3)N(C=C4)C)O)OP(=O)(O)O

> <PUBCHEM_OPENEYE_ISO_SMILES>
CC(C)C1=C(C=C(C(=C1)C2=NNC(=O)N2C3=CC4=C(C=C3)N(C=C4)C)O)OP(=O)(O)O

> <PUBCHEM_CACTVS_TPSA>
137

> <PUBCHEM_MONOISOTOPIC_WEIGHT>
444.119871

> <PUBCHEM_TOTAL_CHARGE>
0

> <PUBCHEM_HEAVY_ATOM_COUNT>
31

> <PUBCHEM_ATOM_DEF_STEREO_COUNT>
0

> <PUBCHEM_ATOM_UDEF_STEREO_COUNT>
0

> <PUBCHEM_BOND_DEF_STEREO_COUNT>
0

> <PUBCHEM_BOND_UDEF_STEREO_COUNT>
0

> <PUBCHEM_ISOTOPIC_ATOM_COUNT>
0

> <PUBCHEM_COMPONENT_COUNT>
1

> <PUBCHEM_CACTVS_TAUTO_COUNT>
-1

> <PUBCHEM_COORDINATE_TYPE>
1
5
255

> <PUBCHEM_BONDANNOTATIONS>
10  11  8
10  15  8
11  28  8
13  16  8
13  20  8
14  16  8
14  22  8
17  21  8
17  26  8
18  19  8
18  21  8
18  29  8
19  27  8
20  25  8
22  25  8
26  27  8
29  30  8
8  15  8
8  28  8
9  19  8
9  30  8

$$$$
