145998279
  -OEChem-05242006142D

 67 70  0     1  0  0  0  0  0999 V2000
    7.0468   -0.2500    0.0000 O   0  0  0  0  0  0  0  0  0  0  0  0
    4.4487    2.2500    0.0000 O   0  0  0  0  0  0  0  0  0  0  0  0
    7.9128    1.2500    0.0000 N   0  0  0  0  0  0  0  0  0  0  0  0
    5.3147    0.7500    0.0000 N   0  0  0  0  0  0  0  0  0  0  0  0
    5.3147    3.7500    0.0000 N   0  0  0  0  0  0  0  0  0  0  0  0
    2.6691    1.1567    0.0000 N   0  0  0  0  0  0  0  0  0  0  0  0
    2.5000   -0.4524    0.0000 N   0  0  0  0  0  0  0  0  0  0  0  0
    8.7788    0.7500    0.0000 C   0  0  0  0  0  0  0  0  0  0  0  0
    8.7788   -0.2500    0.0000 C   0  0  0  0  0  0  0  0  0  0  0  0
    9.6448    1.2500    0.0000 C   0  0  0  0  0  0  0  0  0  0  0  0
    9.6448   -0.7500    0.0000 C   0  0  0  0  0  0  0  0  0  0  0  0
   10.5109    0.7500    0.0000 C   0  0  0  0  0  0  0  0  0  0  0  0
   10.5109   -0.2500    0.0000 C   0  0  0  0  0  0  0  0  0  0  0  0
    7.0468    0.7500    0.0000 C   0  0  0  0  0  0  0  0  0  0  0  0
    6.1808    1.2500    0.0000 C   0  0  1  0  0  0  0  0  0  0  0  0
    5.3147   -3.2500    0.0000 C   0  0  0  0  0  0  0  0  0  0  0  0
    6.1808    2.2500    0.0000 C   0  0  0  0  0  0  0  0  0  0  0  0
    5.3147   -0.2500    0.0000 C   0  0  0  0  0  0  0  0  0  0  0  0
    5.3147   -2.2500    0.0000 C   0  0  0  0  0  0  0  0  0  0  0  0
    5.3147   -4.2500    0.0000 C   0  0  0  0  0  0  0  0  0  0  0  0
    4.3147   -3.2500    0.0000 C   0  0  0  0  0  0  0  0  0  0  0  0
    6.3147   -3.2500    0.0000 C   0  0  0  0  0  0  0  0  0  0  0  0
    4.4487   -0.7500    0.0000 C   0  0  0  0  0  0  0  0  0  0  0  0
    6.1808   -0.7500    0.0000 C   0  0  0  0  0  0  0  0  0  0  0  0
    4.4487   -1.7500    0.0000 C   0  0  0  0  0  0  0  0  0  0  0  0
    6.1808   -1.7500    0.0000 C   0  0  0  0  0  0  0  0  0  0  0  0
    4.4487    1.2500    0.0000 C   0  0  0  0  0  0  0  0  0  0  0  0
    7.0468    2.7500    0.0000 C   0  0  0  0  0  0  0  0  0  0  0  0
    5.3147    2.7500    0.0000 C   0  0  0  0  0  0  0  0  0  0  0  0
    3.5827    0.7500    0.0000 C   0  0  0  0  0  0  0  0  0  0  0  0
    7.0468    3.7500    0.0000 C   0  0  0  0  0  0  0  0  0  0  0  0
    6.1808    4.2500    0.0000 C   0  0  0  0  0  0  0  0  0  0  0  0
    3.4782   -0.2445    0.0000 C   0  0  0  0  0  0  0  0  0  0  0  0
    2.0000    0.4136    0.0000 C   0  0  0  0  0  0  0  0  0  0  0  0
    8.2419    0.4400    0.0000 H   0  0  0  0  0  0  0  0  0  0  0  0
    8.1682   -0.1423    0.0000 H   0  0  0  0  0  0  0  0  0  0  0  0
    8.5668   -0.8326    0.0000 H   0  0  0  0  0  0  0  0  0  0  0  0
   10.0434    1.7250    0.0000 H   0  0  0  0  0  0  0  0  0  0  0  0
    9.2463    1.7250    0.0000 H   0  0  0  0  0  0  0  0  0  0  0  0
    9.2463   -1.2250    0.0000 H   0  0  0  0  0  0  0  0  0  0  0  0
   10.0434   -1.2250    0.0000 H   0  0  0  0  0  0  0  0  0  0  0  0
   11.1215    0.6423    0.0000 H   0  0  0  0  0  0  0  0  0  0  0  0
   10.7229    1.3326    0.0000 H   0  0  0  0  0  0  0  0  0  0  0  0
   10.7229   -0.8326    0.0000 H   0  0  0  0  0  0  0  0  0  0  0  0
   11.1215   -0.1423    0.0000 H   0  0  0  0  0  0  0  0  0  0  0  0
    7.9128    1.8700    0.0000 H   0  0  0  0  0  0  0  0  0  0  0  0
    6.1808    0.6300    0.0000 H   0  0  0  0  0  0  0  0  0  0  0  0
    4.6947   -4.2500    0.0000 H   0  0  0  0  0  0  0  0  0  0  0  0
    5.3147   -4.8700    0.0000 H   0  0  0  0  0  0  0  0  0  0  0  0
    5.9347   -4.2500    0.0000 H   0  0  0  0  0  0  0  0  0  0  0  0
    4.3147   -2.6300    0.0000 H   0  0  0  0  0  0  0  0  0  0  0  0
    3.6947   -3.2500    0.0000 H   0  0  0  0  0  0  0  0  0  0  0  0
    4.3147   -3.8700    0.0000 H   0  0  0  0  0  0  0  0  0  0  0  0
    6.3147   -3.8700    0.0000 H   0  0  0  0  0  0  0  0  0  0  0  0
    6.9347   -3.2500    0.0000 H   0  0  0  0  0  0  0  0  0  0  0  0
    6.3147   -2.6300    0.0000 H   0  0  0  0  0  0  0  0  0  0  0  0
    3.9118   -0.4400    0.0000 H   0  0  0  0  0  0  0  0  0  0  0  0
    6.7177   -0.4400    0.0000 H   0  0  0  0  0  0  0  0  0  0  0  0
    3.9118   -2.0600    0.0000 H   0  0  0  0  0  0  0  0  0  0  0  0
    6.7177   -2.0600    0.0000 H   0  0  0  0  0  0  0  0  0  0  0  0
    7.5837    2.4400    0.0000 H   0  0  0  0  0  0  0  0  0  0  0  0
    4.7778    2.4400    0.0000 H   0  0  0  0  0  0  0  0  0  0  0  0
    7.5837    4.0600    0.0000 H   0  0  0  0  0  0  0  0  0  0  0  0
    6.1808    4.8700    0.0000 H   0  0  0  0  0  0  0  0  0  0  0  0
    2.5402    1.7632    0.0000 H   0  0  0  0  0  0  0  0  0  0  0  0
    3.9389   -0.6594    0.0000 H   0  0  0  0  0  0  0  0  0  0  0  0
    1.3834    0.4784    0.0000 H   0  0  0  0  0  0  0  0  0  0  0  0
  1 14  2  0  0  0  0
  2 27  2  0  0  0  0
  3  8  1  0  0  0  0
  3 14  1  0  0  0  0
  3 46  1  0  0  0  0
 15  4  1  6  0  0  0
  4 18  1  0  0  0  0
  4 27  1  0  0  0  0
  5 29  1  0  0  0  0
  5 32  2  0  0  0  0
  6 30  1  0  0  0  0
  6 34  1  0  0  0  0
  6 65  1  0  0  0  0
  7 33  1  0  0  0  0
  7 34  2  0  0  0  0
  8  9  1  0  0  0  0
  8 10  1  0  0  0  0
  8 35  1  0  0  0  0
  9 11  1  0  0  0  0
  9 36  1  0  0  0  0
  9 37  1  0  0  0  0
 10 12  1  0  0  0  0
 10 38  1  0  0  0  0
 10 39  1  0  0  0  0
 11 13  1  0  0  0  0
 11 40  1  0  0  0  0
 11 41  1  0  0  0  0
 12 13  1  0  0  0  0
 12 42  1  0  0  0  0
 12 43  1  0  0  0  0
 13 44  1  0  0  0  0
 13 45  1  0  0  0  0
 14 15  1  0  0  0  0
 15 17  1  0  0  0  0
 15 47  1  0  0  0  0
 16 19  1  0  0  0  0
 16 20  1  0  0  0  0
 16 21  1  0  0  0  0
 16 22  1  0  0  0  0
 17 28  1  0  0  0  0
 17 29  2  0  0  0  0
 18 23  2  0  0  0  0
 18 24  1  0  0  0  0
 19 25  2  0  0  0  0
 19 26  1  0  0  0  0
 20 48  1  0  0  0  0
 20 49  1  0  0  0  0
 20 50  1  0  0  0  0
 21 51  1  0  0  0  0
 21 52  1  0  0  0  0
 21 53  1  0  0  0  0
 22 54  1  0  0  0  0
 22 55  1  0  0  0  0
 22 56  1  0  0  0  0
 23 25  1  0  0  0  0
 23 57  1  0  0  0  0
 24 26  2  0  0  0  0
 24 58  1  0  0  0  0
 25 59  1  0  0  0  0
 26 60  1  0  0  0  0
 27 30  1  0  0  0  0
 28 31  2  0  0  0  0
 28 61  1  0  0  0  0
 29 62  1  0  0  0  0
 30 33  2  0  0  0  0
 31 32  1  0  0  0  0
 31 63  1  0  0  0  0
 32 64  1  0  0  0  0
 33 66  1  0  0  0  0
 34 67  1  0  0  0  0
M  END
> <PUBCHEM_COMPOUND_CID>
145998279

> <PUBCHEM_COMPOUND_CANONICALIZED>
1

> <PUBCHEM_CACTVS_COMPLEXITY>
679

> <PUBCHEM_CACTVS_HBOND_ACCEPTOR>
4

> <PUBCHEM_CACTVS_HBOND_DONOR>
2

> <PUBCHEM_CACTVS_ROTATABLE_BOND>
7

> <PUBCHEM_CACTVS_SUBSKEYS>
AAADcfB7sAAAAAAAAAAAAAAAAAAAAWAAAAA8YIAAAAAAAAAB8AAAHgAQAAAADijBngQ/0JfJkACoAzV3dACCgC23EqAJ2aG4dNiIaPrA3bGUIIholgLIyOcciMAPiAAAAAAAAAAQAAAAAAAAAAAAAAAAAA==

> <PUBCHEM_IUPAC_OPENEYE_NAME>
N-(4-tert-butylphenyl)-N-[(1R)-2-(cyclohexylamino)-2-oxo-1-(3-pyridyl)ethyl]-1H-imidazole-5-carboxamide

> <PUBCHEM_IUPAC_CAS_NAME>
N-(4-tert-butylphenyl)-N-[(1R)-2-(cyclohexylamino)-2-oxo-1-(3-pyridinyl)ethyl]-1H-imidazole-5-carboxamide

> <PUBCHEM_IUPAC_NAME_MARKUP>
<I>N</I>-(4-<I>tert</I>-butylphenyl)-<I>N</I>-[(1<I>R</I>)-2-(cyclohexylamino)-2-oxo-1-pyridin-3-ylethyl]-1<I>H</I>-imidazole-5-carboxamide

> <PUBCHEM_IUPAC_NAME>
N-(4-tert-butylphenyl)-N-[(1R)-2-(cyclohexylamino)-2-oxo-1-pyridin-3-ylethyl]-1H-imidazole-5-carboxamide

> <PUBCHEM_IUPAC_SYSTEMATIC_NAME>
N-(4-tert-butylphenyl)-N-[(1R)-2-(cyclohexylamino)-2-oxidanylidene-1-pyridin-3-yl-ethyl]-1H-imidazole-5-carboxamide

> <PUBCHEM_IUPAC_TRADITIONAL_NAME>
N-(4-tert-butylphenyl)-N-[(1R)-2-(cyclohexylamino)-2-keto-1-(3-pyridyl)ethyl]-1H-imidazole-5-carboxamide

> <PUBCHEM_IUPAC_INCHI>
InChI=1S/C27H33N5O2/c1-27(2,3)20-11-13-22(14-12-20)32(26(34)23-17-29-18-30-23)24(19-8-7-15-28-16-19)25(33)31-21-9-5-4-6-10-21/h7-8,11-18,21,24H,4-6,9-10H2,1-3H3,(H,29,30)(H,31,33)/t24-/m1/s1

> <PUBCHEM_IUPAC_INCHIKEY>
MUNFBYOTGGMQOS-XMMPIXPASA-N

> <PUBCHEM_XLOGP3_AA>
4.9

> <PUBCHEM_EXACT_MASS>
459.263425

> <PUBCHEM_MOLECULAR_FORMULA>
C27H33N5O2

> <PUBCHEM_MOLECULAR_WEIGHT>
459.6

> <PUBCHEM_OPENEYE_CAN_SMILES>
CC(C)(C)C1=CC=C(C=C1)N(C(C2=CN=CC=C2)C(=O)NC3CCCCC3)C(=O)C4=CN=CN4

> <PUBCHEM_OPENEYE_ISO_SMILES>
CC(C)(C)C1=CC=C(C=C1)N([C@H](C2=CN=CC=C2)C(=O)NC3CCCCC3)C(=O)C4=CN=CN4

> <PUBCHEM_CACTVS_TPSA>
91

> <PUBCHEM_MONOISOTOPIC_WEIGHT>
459.263425

> <PUBCHEM_TOTAL_CHARGE>
0

> <PUBCHEM_HEAVY_ATOM_COUNT>
34

> <PUBCHEM_ATOM_DEF_STEREO_COUNT>
1

> <PUBCHEM_ATOM_UDEF_STEREO_COUNT>
0

> <PUBCHEM_BOND_DEF_STEREO_COUNT>
0

> <PUBCHEM_BOND_UDEF_STEREO_COUNT>
0

> <PUBCHEM_ISOTOPIC_ATOM_COUNT>
0

> <PUBCHEM_COMPONENT_COUNT>
1

> <PUBCHEM_CACTVS_TAUTO_COUNT>
-1

> <PUBCHEM_COORDINATE_TYPE>
1
5
255

> <PUBCHEM_BONDANNOTATIONS>
17  28  8
17  29  8
18  23  8
18  24  8
19  25  8
19  26  8
23  25  8
24  26  8
28  31  8
30  33  8
31  32  8
15  4  6
5  29  8
5  32  8
6  30  8
6  34  8
7  33  8
7  34  8

$$$$
