145996610
  -OEChem-05242006142D

 42 43  0     1  0  0  0  0  0999 V2000
    5.0298   -1.1648    0.0000 O   0  0  0  0  0  0  0  0  0  0  0  0
    3.1330   -2.9249    0.0000 O   0  0  0  0  0  0  0  0  0  0  0  0
    2.4608   -0.8558    0.0000 O   0  0  0  0  0  0  0  0  0  0  0  0
    6.3031   -2.8204    0.0000 O   0  0  0  0  0  0  0  0  0  0  0  0
    5.9529    0.4229    0.0000 O   0  0  0  0  0  0  0  0  0  0  0  0
    6.4842   -4.5430    0.0000 O   0  0  0  0  0  0  0  0  0  0  0  0
    3.3548    3.9230    0.0000 O   0  0  0  0  0  0  0  0  0  0  0  0
    4.2208    0.4229    0.0000 N   0  0  0  0  0  0  0  0  0  0  0  0
    5.0868    1.9230    0.0000 N   0  0  0  0  0  0  0  0  0  0  0  0
    4.2208    3.4230    0.0000 N   0  0  0  0  0  0  0  0  0  0  0  0
    3.7208   -2.1159    0.0000 C   0  0  1  0  0  0  0  0  0  0  0  0
    3.4118   -1.1648    0.0000 C   0  0  2  0  0  0  0  0  0  0  0  0
    4.7208   -2.1159    0.0000 C   0  0  1  0  0  0  0  0  0  0  0  0
    4.2208   -0.5771    0.0000 C   0  0  1  0  0  0  0  0  0  0  0  0
    5.3086   -2.9249    0.0000 C   0  0  0  0  0  0  0  0  0  0  0  0
    3.3548    0.9229    0.0000 C   0  0  0  0  0  0  0  0  0  0  0  0
    5.0868    0.9229    0.0000 C   0  0  0  0  0  0  0  0  0  0  0  0
    6.8909   -3.6294    0.0000 C   0  0  0  0  0  0  0  0  0  0  0  0
    3.3548    1.9230    0.0000 C   0  0  0  0  0  0  0  0  0  0  0  0
    7.8854   -3.5249    0.0000 C   0  0  0  0  0  0  0  0  0  0  0  0
    4.2208    2.4230    0.0000 C   0  0  0  0  0  0  0  0  0  0  0  0
    8.4732   -4.3339    0.0000 C   0  0  0  0  0  0  0  0  0  0  0  0
    8.2922   -2.6113    0.0000 C   0  0  0  0  0  0  0  0  0  0  0  0
    3.1085   -2.0189    0.0000 H   0  0  0  0  0  0  0  0  0  0  0  0
    2.9734   -1.6032    0.0000 H   0  0  0  0  0  0  0  0  0  0  0  0
    5.3332   -2.0189    0.0000 H   0  0  0  0  0  0  0  0  0  0  0  0
    3.6684   -0.2956    0.0000 H   0  0  0  0  0  0  0  0  0  0  0  0
    4.7514   -3.1967    0.0000 H   0  0  0  0  0  0  0  0  0  0  0  0
    5.4795   -3.5209    0.0000 H   0  0  0  0  0  0  0  0  0  0  0  0
    3.3852   -3.4913    0.0000 H   0  0  0  0  0  0  0  0  0  0  0  0
    2.0000   -1.2707    0.0000 H   0  0  0  0  0  0  0  0  0  0  0  0
    2.8179    0.6129    0.0000 H   0  0  0  0  0  0  0  0  0  0  0  0
    2.8179    2.2330    0.0000 H   0  0  0  0  0  0  0  0  0  0  0  0
    7.5210   -3.0233    0.0000 H   0  0  0  0  0  0  0  0  0  0  0  0
    7.9716   -4.6983    0.0000 H   0  0  0  0  0  0  0  0  0  0  0  0
    8.8376   -4.8355    0.0000 H   0  0  0  0  0  0  0  0  0  0  0  0
    8.9748   -3.9695    0.0000 H   0  0  0  0  0  0  0  0  0  0  0  0
    8.8586   -2.8635    0.0000 H   0  0  0  0  0  0  0  0  0  0  0  0
    8.5444   -2.0449    0.0000 H   0  0  0  0  0  0  0  0  0  0  0  0
    7.7258   -2.3592    0.0000 H   0  0  0  0  0  0  0  0  0  0  0  0
    4.7578    3.7330    0.0000 H   0  0  0  0  0  0  0  0  0  0  0  0
    3.3548    4.5430    0.0000 H   0  0  0  0  0  0  0  0  0  0  0  0
  1 13  1  0  0  0  0
  1 14  1  0  0  0  0
 11  2  1  1  0  0  0
  2 30  1  0  0  0  0
 12  3  1  1  0  0  0
  3 31  1  0  0  0  0
  4 15  1  0  0  0  0
  4 18  1  0  0  0  0
  5 17  2  0  0  0  0
  6 18  2  0  0  0  0
  7 10  1  0  0  0  0
  7 42  1  0  0  0  0
 14  8  1  6  0  0  0
  8 16  1  0  0  0  0
  8 17  1  0  0  0  0
  9 17  1  0  0  0  0
  9 21  2  0  0  0  0
 10 21  1  0  0  0  0
 10 41  1  0  0  0  0
 11 12  1  0  0  0  0
 11 13  1  0  0  0  0
 11 24  1  0  0  0  0
 12 14  1  0  0  0  0
 12 25  1  0  0  0  0
 13 15  1  6  0  0  0
 13 26  1  0  0  0  0
 14 27  1  0  0  0  0
 15 28  1  0  0  0  0
 15 29  1  0  0  0  0
 16 19  2  0  0  0  0
 16 32  1  0  0  0  0
 18 20  1  0  0  0  0
 19 21  1  0  0  0  0
 19 33  1  0  0  0  0
 20 22  1  0  0  0  0
 20 23  1  0  0  0  0
 20 34  1  0  0  0  0
 22 35  1  0  0  0  0
 22 36  1  0  0  0  0
 22 37  1  0  0  0  0
 23 38  1  0  0  0  0
 23 39  1  0  0  0  0
 23 40  1  0  0  0  0
M  END
> <PUBCHEM_COMPOUND_CID>
145996610

> <PUBCHEM_COMPOUND_CANONICALIZED>
1

> <PUBCHEM_CACTVS_COMPLEXITY>
534

> <PUBCHEM_CACTVS_HBOND_ACCEPTOR>
7

> <PUBCHEM_CACTVS_HBOND_DONOR>
4

> <PUBCHEM_CACTVS_ROTATABLE_BOND>
6

> <PUBCHEM_CACTVS_SUBSKEYS>
AAADceBzOAAAAAAAAAAAAAAAAAAAASAAAAAgAAAAAAAAAAAAAAAAHgAUCAAADRThgAYDCANQBgCoACL2fACAAAEAAgAoAAEYABCDEAIAgAAOQAAHFgITAADwMAoAAAAAAAAAAAAAAAAAAAAAAAAAAAAAAA==

> <PUBCHEM_IUPAC_OPENEYE_NAME>
[(2R,3S,4R,5R)-3,4-dihydroxy-5-[4-(hydroxyamino)-2-oxo-pyrimidin-1-yl]tetrahydrofuran-2-yl]methyl 2-methylpropanoate

> <PUBCHEM_IUPAC_CAS_NAME>
2-methylpropanoic acid [(2R,3S,4R,5R)-3,4-dihydroxy-5-[4-(hydroxyamino)-2-oxo-1-pyrimidinyl]-2-oxolanyl]methyl ester

> <PUBCHEM_IUPAC_NAME_MARKUP>
[(2<I>R</I>,3<I>S</I>,4<I>R</I>,5<I>R</I>)-3,4-dihydroxy-5-[4-(hydroxyamino)-2-oxopyrimidin-1-yl]oxolan-2-yl]methyl 2-methylpropanoate

> <PUBCHEM_IUPAC_NAME>
[(2R,3S,4R,5R)-3,4-dihydroxy-5-[4-(hydroxyamino)-2-oxopyrimidin-1-yl]oxolan-2-yl]methyl 2-methylpropanoate

> <PUBCHEM_IUPAC_SYSTEMATIC_NAME>
[(2R,3S,4R,5R)-3,4-bis(oxidanyl)-5-[4-(oxidanylamino)-2-oxidanylidene-pyrimidin-1-yl]oxolan-2-yl]methyl 2-methylpropanoate

> <PUBCHEM_IUPAC_TRADITIONAL_NAME>
2-methylpropionic acid [(2R,3S,4R,5R)-3,4-dihydroxy-5-[4-(hydroxyamino)-2-keto-pyrimidin-1-yl]tetrahydrofuran-2-yl]methyl ester

> <PUBCHEM_IUPAC_INCHI>
InChI=1S/C13H19N3O7/c1-6(2)12(19)22-5-7-9(17)10(18)11(23-7)16-4-3-8(15-21)14-13(16)20/h3-4,6-7,9-11,17-18,21H,5H2,1-2H3,(H,14,15,20)/t7-,9-,10-,11-/m1/s1

> <PUBCHEM_IUPAC_INCHIKEY>
HTNPEHXGEKVIHG-QCNRFFRDSA-N

> <PUBCHEM_XLOGP3>
-0.8

> <PUBCHEM_EXACT_MASS>
329.1223

> <PUBCHEM_MOLECULAR_FORMULA>
C13H19N3O7

> <PUBCHEM_MOLECULAR_WEIGHT>
329.31

> <PUBCHEM_OPENEYE_CAN_SMILES>
CC(C)C(=O)OCC1C(C(C(O1)N2C=CC(=NC2=O)NO)O)O

> <PUBCHEM_OPENEYE_ISO_SMILES>
CC(C)C(=O)OC[C@@H]1[C@H]([C@H]([C@@H](O1)N2C=CC(=NC2=O)NO)O)O

> <PUBCHEM_CACTVS_TPSA>
141

> <PUBCHEM_MONOISOTOPIC_WEIGHT>
329.1223

> <PUBCHEM_TOTAL_CHARGE>
0

> <PUBCHEM_HEAVY_ATOM_COUNT>
23

> <PUBCHEM_ATOM_DEF_STEREO_COUNT>
4

> <PUBCHEM_ATOM_UDEF_STEREO_COUNT>
0

> <PUBCHEM_BOND_DEF_STEREO_COUNT>
0

> <PUBCHEM_BOND_UDEF_STEREO_COUNT>
0

> <PUBCHEM_ISOTOPIC_ATOM_COUNT>
0

> <PUBCHEM_COMPONENT_COUNT>
1

> <PUBCHEM_CACTVS_TAUTO_COUNT>
-1

> <PUBCHEM_COORDINATE_TYPE>
1
5
255

> <PUBCHEM_BONDANNOTATIONS>
13  15  6
16  19  8
19  21  8
11  2  5
12  3  5
14  8  6
8  16  8
8  17  8
9  17  8
9  21  8

$$$$
