146025596
  -OEChem-05242006102D

 44 45  0     1  0  0  0  0  0999 V2000
    5.0298   -0.8548    0.0000 O   0  0  0  0  0  0  0  0  0  0  0  0
    3.1330   -2.6149    0.0000 O   0  0  0  0  0  0  0  0  0  0  0  0
    2.4608   -0.5458    0.0000 O   0  0  0  0  0  0  0  0  0  0  0  0
    6.3031   -2.5104    0.0000 O   0  0  0  0  0  0  0  0  0  0  0  0
    5.9529    0.7329    0.0000 O   0  0  0  0  0  0  0  0  0  0  0  0
    6.4842   -4.2330    0.0000 O   0  0  0  0  0  0  0  0  0  0  0  0
    4.2208    0.7329    0.0000 N   0  0  0  0  0  0  0  0  0  0  0  0
    5.0868    2.2330    0.0000 N   0  0  0  0  0  0  0  0  0  0  0  0
    4.2208    3.7330    0.0000 N   0  0  0  0  0  0  0  0  0  0  0  0
    3.7208   -1.8059    0.0000 C   0  0  2  0  0  0  0  0  0  0  0  0
    3.4118   -0.8548    0.0000 C   0  0  1  0  0  0  0  0  0  0  0  0
    4.7208   -1.8059    0.0000 C   0  0  2  0  0  0  0  0  0  0  0  0
    4.2208   -0.2671    0.0000 C   0  0  3  0  0  0  0  0  0  0  0  0
    5.3086   -2.6149    0.0000 C   0  0  0  0  0  0  0  0  0  0  0  0
    3.3548    1.2330    0.0000 C   0  0  0  0  0  0  0  0  0  0  0  0
    5.0868    1.2330    0.0000 C   0  0  0  0  0  0  0  0  0  0  0  0
    3.3548    2.2330    0.0000 C   0  0  0  0  0  0  0  0  0  0  0  0
    6.8909   -3.3194    0.0000 C   0  0  0  0  0  0  0  0  0  0  0  0
    7.8854   -3.2149    0.0000 C   0  0  0  0  0  0  0  0  0  0  0  0
    4.2208    2.7330    0.0000 C   0  0  0  0  0  0  0  0  0  0  0  0
    8.4732   -4.0239    0.0000 C   0  0  0  0  0  0  0  0  0  0  0  0
    8.2922   -2.3013    0.0000 C   0  0  0  0  0  0  0  0  0  0  0  0
    3.3548    4.2330    0.0000 C   0  0  0  0  0  0  0  0  0  0  0  0
    4.0023   -2.3583    0.0000 H   0  0  0  0  0  0  0  0  0  0  0  0
    3.3148   -0.2425    0.0000 H   0  0  0  0  0  0  0  0  0  0  0  0
    5.3332   -1.7089    0.0000 H   0  0  0  0  0  0  0  0  0  0  0  0
    3.6684    0.0144    0.0000 H   0  0  0  0  0  0  0  0  0  0  0  0
    4.7514   -2.8867    0.0000 H   0  0  0  0  0  0  0  0  0  0  0  0
    5.4795   -3.2109    0.0000 H   0  0  0  0  0  0  0  0  0  0  0  0
    3.3852   -3.1813    0.0000 H   0  0  0  0  0  0  0  0  0  0  0  0
    2.0000   -0.9607    0.0000 H   0  0  0  0  0  0  0  0  0  0  0  0
    2.8179    0.9229    0.0000 H   0  0  0  0  0  0  0  0  0  0  0  0
    2.8179    2.5430    0.0000 H   0  0  0  0  0  0  0  0  0  0  0  0
    7.5210   -2.7133    0.0000 H   0  0  0  0  0  0  0  0  0  0  0  0
    7.9716   -4.3883    0.0000 H   0  0  0  0  0  0  0  0  0  0  0  0
    8.8376   -4.5255    0.0000 H   0  0  0  0  0  0  0  0  0  0  0  0
    8.9748   -3.6595    0.0000 H   0  0  0  0  0  0  0  0  0  0  0  0
    8.8586   -2.5535    0.0000 H   0  0  0  0  0  0  0  0  0  0  0  0
    8.5444   -1.7349    0.0000 H   0  0  0  0  0  0  0  0  0  0  0  0
    7.7258   -2.0492    0.0000 H   0  0  0  0  0  0  0  0  0  0  0  0
    4.7578    4.0430    0.0000 H   0  0  0  0  0  0  0  0  0  0  0  0
    3.6648    4.7699    0.0000 H   0  0  0  0  0  0  0  0  0  0  0  0
    2.8179    4.5430    0.0000 H   0  0  0  0  0  0  0  0  0  0  0  0
    3.0448    3.6960    0.0000 H   0  0  0  0  0  0  0  0  0  0  0  0
  1 12  1  0  0  0  0
  1 13  1  0  0  0  0
 10  2  1  6  0  0  0
  2 30  1  0  0  0  0
 11  3  1  6  0  0  0
  3 31  1  0  0  0  0
  4 14  1  0  0  0  0
  4 18  1  0  0  0  0
  5 16  2  0  0  0  0
  6 18  2  0  0  0  0
  7 13  1  0  0  0  0
  7 15  1  0  0  0  0
  7 16  1  0  0  0  0
  8 16  1  0  0  0  0
  8 20  2  0  0  0  0
  9 20  1  0  0  0  0
  9 23  1  0  0  0  0
  9 41  1  0  0  0  0
 10 11  1  0  0  0  0
 10 12  1  0  0  0  0
 10 24  1  0  0  0  0
 11 13  1  0  0  0  0
 11 25  1  0  0  0  0
 12 14  1  1  0  0  0
 12 26  1  0  0  0  0
 13 27  1  0  0  0  0
 14 28  1  0  0  0  0
 14 29  1  0  0  0  0
 15 17  2  0  0  0  0
 15 32  1  0  0  0  0
 17 20  1  0  0  0  0
 17 33  1  0  0  0  0
 18 19  1  0  0  0  0
 19 21  1  0  0  0  0
 19 22  1  0  0  0  0
 19 34  1  0  0  0  0
 21 35  1  0  0  0  0
 21 36  1  0  0  0  0
 21 37  1  0  0  0  0
 22 38  1  0  0  0  0
 22 39  1  0  0  0  0
 22 40  1  0  0  0  0
 23 42  1  0  0  0  0
 23 43  1  0  0  0  0
 23 44  1  0  0  0  0
M  END
> <PUBCHEM_COMPOUND_CID>
146025596

> <PUBCHEM_COMPOUND_CANONICALIZED>
1

> <PUBCHEM_CACTVS_COMPLEXITY>
533

> <PUBCHEM_CACTVS_HBOND_ACCEPTOR>
6

> <PUBCHEM_CACTVS_HBOND_DONOR>
3

> <PUBCHEM_CACTVS_ROTATABLE_BOND>
6

> <PUBCHEM_CACTVS_SUBSKEYS>
AAADceBzOAAAAAAAAAAAAAAAAAAAASAAAAAgAAAAAAAAAAAAAAAAHgAQCAAADRThgAYDCAPABgCoACL2fACAAAEAAgAJAIEYABCDEAIAgAAOQAAHFgITAADwMAoAAAAAAAAAAAAAAAAAAAAAAAAAAAAAAA==

> <PUBCHEM_IUPAC_OPENEYE_NAME>
[(2S,3R,4S)-3,4-dihydroxy-5-[4-(methylamino)-2-oxo-pyrimidin-1-yl]tetrahydrofuran-2-yl]methyl 2-methylpropanoate

> <PUBCHEM_IUPAC_CAS_NAME>
2-methylpropanoic acid [(2S,3R,4S)-3,4-dihydroxy-5-[4-(methylamino)-2-oxo-1-pyrimidinyl]-2-oxolanyl]methyl ester

> <PUBCHEM_IUPAC_NAME_MARKUP>
[(2<I>S</I>,3<I>R</I>,4<I>S</I>)-3,4-dihydroxy-5-[4-(methylamino)-2-oxopyrimidin-1-yl]oxolan-2-yl]methyl 2-methylpropanoate

> <PUBCHEM_IUPAC_NAME>
[(2S,3R,4S)-3,4-dihydroxy-5-[4-(methylamino)-2-oxopyrimidin-1-yl]oxolan-2-yl]methyl 2-methylpropanoate

> <PUBCHEM_IUPAC_SYSTEMATIC_NAME>
[(2S,3R,4S)-5-[4-(methylamino)-2-oxidanylidene-pyrimidin-1-yl]-3,4-bis(oxidanyl)oxolan-2-yl]methyl 2-methylpropanoate

> <PUBCHEM_IUPAC_TRADITIONAL_NAME>
2-methylpropionic acid [(2S,3R,4S)-3,4-dihydroxy-5-[2-keto-4-(methylamino)pyrimidin-1-yl]tetrahydrofuran-2-yl]methyl ester

> <PUBCHEM_IUPAC_INCHI>
InChI=1S/C14H21N3O6/c1-7(2)13(20)22-6-8-10(18)11(19)12(23-8)17-5-4-9(15-3)16-14(17)21/h4-5,7-8,10-12,18-19H,6H2,1-3H3,(H,15,16,21)/t8-,10-,11-,12?/m0/s1

> <PUBCHEM_IUPAC_INCHIKEY>
FUQMVYVKIDSEQD-BLMNMFOGSA-N

> <PUBCHEM_XLOGP3>
-0.3

> <PUBCHEM_EXACT_MASS>
327.143035

> <PUBCHEM_MOLECULAR_FORMULA>
C14H21N3O6

> <PUBCHEM_MOLECULAR_WEIGHT>
327.33

> <PUBCHEM_OPENEYE_CAN_SMILES>
CC(C)C(=O)OCC1C(C(C(O1)N2C=CC(=NC2=O)NC)O)O

> <PUBCHEM_OPENEYE_ISO_SMILES>
CC(C)C(=O)OC[C@H]1[C@@H]([C@@H](C(O1)N2C=CC(=NC2=O)NC)O)O

> <PUBCHEM_CACTVS_TPSA>
121

> <PUBCHEM_MONOISOTOPIC_WEIGHT>
327.143035

> <PUBCHEM_TOTAL_CHARGE>
0

> <PUBCHEM_HEAVY_ATOM_COUNT>
23

> <PUBCHEM_ATOM_DEF_STEREO_COUNT>
3

> <PUBCHEM_ATOM_UDEF_STEREO_COUNT>
1

> <PUBCHEM_BOND_DEF_STEREO_COUNT>
0

> <PUBCHEM_BOND_UDEF_STEREO_COUNT>
0

> <PUBCHEM_ISOTOPIC_ATOM_COUNT>
0

> <PUBCHEM_COMPONENT_COUNT>
1

> <PUBCHEM_CACTVS_TAUTO_COUNT>
-1

> <PUBCHEM_COORDINATE_TYPE>
1
5
255

> <PUBCHEM_BONDANNOTATIONS>
12  14  5
15  17  8
17  20  8
10  2  6
11  3  6
13  7  3
7  15  8
7  16  8
8  16  8
8  20  8

$$$$
