146018721
  -OEChem-05242006142D

 38 38  0     0  0  0  0  0  0999 V2000
    2.0000    1.7500    0.0000 O   0  0  0  0  0  0  0  0  0  0  0  0
    3.7320   -3.2500    0.0000 O   0  0  0  0  0  0  0  0  0  0  0  0
    2.8660   -1.7500    0.0000 N   0  0  0  0  0  0  0  0  0  0  0  0
    3.7320    1.7500    0.0000 N   0  0  0  0  0  0  0  0  0  0  0  0
    2.8660    0.2500    0.0000 C   0  0  0  0  0  0  0  0  0  0  0  0
    2.0000   -0.2500    0.0000 C   0  0  0  0  0  0  0  0  0  0  0  0
    3.7320   -0.2500    0.0000 C   0  0  0  0  0  0  0  0  0  0  0  0
    2.0000   -1.2500    0.0000 C   0  0  0  0  0  0  0  0  0  0  0  0
    3.7320   -1.2500    0.0000 C   0  0  0  0  0  0  0  0  0  0  0  0
    2.8660    1.2500    0.0000 C   0  0  0  0  0  0  0  0  0  0  0  0
    3.7320    2.7500    0.0000 C   0  0  0  0  0  0  0  0  0  0  0  0
    2.8660   -2.7500    0.0000 C   0  0  0  0  0  0  0  0  0  0  0  0
    4.5981    1.2500    0.0000 C   0  0  0  0  0  0  0  0  0  0  0  0
    4.5981    3.2500    0.0000 C   0  0  0  0  0  0  0  0  0  0  0  0
    2.8660    3.2500    0.0000 C   0  0  0  0  0  0  0  0  0  0  0  0
    2.0000   -3.2500    0.0000 C   0  0  0  0  0  0  0  0  0  0  0  0
    3.4030    0.5600    0.0000 H   0  0  0  0  0  0  0  0  0  0  0  0
    1.7880    0.3326    0.0000 H   0  0  0  0  0  0  0  0  0  0  0  0
    1.3894   -0.3577    0.0000 H   0  0  0  0  0  0  0  0  0  0  0  0
    4.3426   -0.3577    0.0000 H   0  0  0  0  0  0  0  0  0  0  0  0
    3.9441    0.3326    0.0000 H   0  0  0  0  0  0  0  0  0  0  0  0
    1.3894   -1.1423    0.0000 H   0  0  0  0  0  0  0  0  0  0  0  0
    1.7880   -1.8326    0.0000 H   0  0  0  0  0  0  0  0  0  0  0  0
    3.9441   -1.8326    0.0000 H   0  0  0  0  0  0  0  0  0  0  0  0
    4.3426   -1.1423    0.0000 H   0  0  0  0  0  0  0  0  0  0  0  0
    4.2690    2.4400    0.0000 H   0  0  0  0  0  0  0  0  0  0  0  0
    4.2881    0.7131    0.0000 H   0  0  0  0  0  0  0  0  0  0  0  0
    5.1350    0.9400    0.0000 H   0  0  0  0  0  0  0  0  0  0  0  0
    4.9081    1.7869    0.0000 H   0  0  0  0  0  0  0  0  0  0  0  0
    4.9081    2.7131    0.0000 H   0  0  0  0  0  0  0  0  0  0  0  0
    5.1350    3.5600    0.0000 H   0  0  0  0  0  0  0  0  0  0  0  0
    4.2881    3.7869    0.0000 H   0  0  0  0  0  0  0  0  0  0  0  0
    3.1760    3.7869    0.0000 H   0  0  0  0  0  0  0  0  0  0  0  0
    2.3291    3.5600    0.0000 H   0  0  0  0  0  0  0  0  0  0  0  0
    2.5560    2.7131    0.0000 H   0  0  0  0  0  0  0  0  0  0  0  0
    1.6900   -2.7131    0.0000 H   0  0  0  0  0  0  0  0  0  0  0  0
    1.4631   -3.5600    0.0000 H   0  0  0  0  0  0  0  0  0  0  0  0
    2.3100   -3.7869    0.0000 H   0  0  0  0  0  0  0  0  0  0  0  0
  1 10  2  0  0  0  0
  2 12  2  0  0  0  0
  3  8  1  0  0  0  0
  3  9  1  0  0  0  0
  3 12  1  0  0  0  0
  4 10  1  0  0  0  0
  4 11  1  0  0  0  0
  4 13  1  0  0  0  0
  5  6  1  0  0  0  0
  5  7  1  0  0  0  0
  5 10  1  0  0  0  0
  5 17  1  0  0  0  0
  6  8  1  0  0  0  0
  6 18  1  0  0  0  0
  6 19  1  0  0  0  0
  7  9  1  0  0  0  0
  7 20  1  0  0  0  0
  7 21  1  0  0  0  0
  8 22  1  0  0  0  0
  8 23  1  0  0  0  0
  9 24  1  0  0  0  0
  9 25  1  0  0  0  0
 11 14  1  0  0  0  0
 11 15  1  0  0  0  0
 11 26  1  0  0  0  0
 12 16  1  0  0  0  0
 13 27  1  0  0  0  0
 13 28  1  0  0  0  0
 13 29  1  0  0  0  0
 14 30  1  0  0  0  0
 14 31  1  0  0  0  0
 14 32  1  0  0  0  0
 15 33  1  0  0  0  0
 15 34  1  0  0  0  0
 15 35  1  0  0  0  0
 16 36  1  0  0  0  0
 16 37  1  0  0  0  0
 16 38  1  0  0  0  0
M  END
> <PUBCHEM_COMPOUND_CID>
146018721

> <PUBCHEM_COMPOUND_CANONICALIZED>
1

> <PUBCHEM_CACTVS_COMPLEXITY>
268

> <PUBCHEM_CACTVS_HBOND_ACCEPTOR>
2

> <PUBCHEM_CACTVS_HBOND_DONOR>
0

> <PUBCHEM_CACTVS_ROTATABLE_BOND>
2

> <PUBCHEM_CACTVS_SUBSKEYS>
AAADceBzMAAAAAAAAAAAAAAAAAAAAAAAAAAsAAAAAAAAAAAAAAAAHgAAAAAADSjBgAQCAAMAAAAIAAEQEAAAAAAAAAAAAAEIAAAAABIAgAAEAAAABgCAAAAUAAAKAAAAAAAAAAAAAAAAAAAAAAAAAAAAAA==

> <PUBCHEM_IUPAC_OPENEYE_NAME>
1-acetyl-N-isopropyl-N-methyl-piperidine-4-carboxamide

> <PUBCHEM_IUPAC_CAS_NAME>
1-acetyl-N-methyl-N-propan-2-yl-4-piperidinecarboxamide

> <PUBCHEM_IUPAC_NAME_MARKUP>
1-acetyl-<I>N</I>-methyl-<I>N</I>-propan-2-ylpiperidine-4-carboxamide

> <PUBCHEM_IUPAC_NAME>
1-acetyl-N-methyl-N-propan-2-ylpiperidine-4-carboxamide

> <PUBCHEM_IUPAC_SYSTEMATIC_NAME>
1-ethanoyl-N-methyl-N-propan-2-yl-piperidine-4-carboxamide

> <PUBCHEM_IUPAC_TRADITIONAL_NAME>
1-acetyl-N-isopropyl-N-methyl-isonipecotamide

> <PUBCHEM_IUPAC_INCHI>
InChI=1S/C12H22N2O2/c1-9(2)13(4)12(16)11-5-7-14(8-6-11)10(3)15/h9,11H,5-8H2,1-4H3

> <PUBCHEM_IUPAC_INCHIKEY>
CELKOAKJTFSHIV-UHFFFAOYSA-N

> <PUBCHEM_XLOGP3_AA>
0.5

> <PUBCHEM_EXACT_MASS>
226.168128

> <PUBCHEM_MOLECULAR_FORMULA>
C12H22N2O2

> <PUBCHEM_MOLECULAR_WEIGHT>
226.32

> <PUBCHEM_OPENEYE_CAN_SMILES>
CC(C)N(C)C(=O)C1CCN(CC1)C(=O)C

> <PUBCHEM_OPENEYE_ISO_SMILES>
CC(C)N(C)C(=O)C1CCN(CC1)C(=O)C

> <PUBCHEM_CACTVS_TPSA>
40.6

> <PUBCHEM_MONOISOTOPIC_WEIGHT>
226.168128

> <PUBCHEM_TOTAL_CHARGE>
0

> <PUBCHEM_HEAVY_ATOM_COUNT>
16

> <PUBCHEM_ATOM_DEF_STEREO_COUNT>
0

> <PUBCHEM_ATOM_UDEF_STEREO_COUNT>
0

> <PUBCHEM_BOND_DEF_STEREO_COUNT>
0

> <PUBCHEM_BOND_UDEF_STEREO_COUNT>
0

> <PUBCHEM_ISOTOPIC_ATOM_COUNT>
0

> <PUBCHEM_COMPONENT_COUNT>
1

> <PUBCHEM_CACTVS_TAUTO_COUNT>
-1

> <PUBCHEM_COORDINATE_TYPE>
1
5
255

$$$$
