146018708
  -OEChem-05242006142D

 84 87  0     1  0  0  0  0  0999 V2000
    6.4641   -2.8656    0.0000 O   0  0  0  0  0  0  0  0  0  0  0  0
    9.9282   -1.8656    0.0000 O   0  0  0  0  0  0  0  0  0  0  0  0
    3.8660   -0.3656    0.0000 O   0  0  0  0  0  0  0  0  0  0  0  0
    8.4236   -5.0292    0.0000 O   0  0  0  0  0  0  0  0  0  0  0  0
    8.1962    0.1344    0.0000 O   0  0  0  0  0  0  0  0  0  0  0  0
    3.0000    3.1344    0.0000 O   0  0  0  0  0  0  0  0  0  0  0  0
    4.7320    3.1344    0.0000 O   0  0  0  0  0  0  0  0  0  0  0  0
    5.5981   -0.3656    0.0000 N   0  0  0  0  0  0  0  0  0  0  0  0
    7.3301   -1.3656    0.0000 N   0  0  0  0  0  0  0  0  0  0  0  0
   10.1449   -4.5680    0.0000 N   0  0  0  0  0  0  0  0  0  0  0  0
    3.8660    1.6344    0.0000 N   0  0  0  0  0  0  0  0  0  0  0  0
    9.9282    0.1344    0.0000 N   0  0  0  0  0  0  0  0  0  0  0  0
    4.7320   -2.8656    0.0000 C   0  0  0  0  0  0  0  0  0  0  0  0
    4.2320   -3.7316    0.0000 C   0  0  0  0  0  0  0  0  0  0  0  0
    5.2320   -3.7316    0.0000 C   0  0  0  0  0  0  0  0  0  0  0  0
    4.7320   -1.8656    0.0000 C   0  0  0  0  0  0  0  0  0  0  0  0
    5.5981   -1.3656    0.0000 C   0  0  1  0  0  0  0  0  0  0  0  0
    6.4641   -1.8656    0.0000 C   0  0  0  0  0  0  0  0  0  0  0  0
    8.1962   -1.8656    0.0000 C   0  0  1  0  0  0  0  0  0  0  0  0
    8.1962   -2.8656    0.0000 C   0  0  0  0  0  0  0  0  0  0  0  0
    9.0622   -3.3656    0.0000 C   0  0  2  0  0  0  0  0  0  0  0  0
    9.9757   -2.9588    0.0000 C   0  0  0  0  0  0  0  0  0  0  0  0
    9.0622   -1.3656    0.0000 C   0  0  2  0  0  0  0  0  0  0  0  0
    4.7320    0.1344    0.0000 C   0  0  0  0  0  0  0  0  0  0  0  0
    6.4641    0.1344    0.0000 C   0  0  0  0  0  0  0  0  0  0  0  0
   10.6449   -3.7020    0.0000 C   0  0  0  0  0  0  0  0  0  0  0  0
    9.1667   -4.3601    0.0000 C   0  0  0  0  0  0  0  0  0  0  0  0
    4.7320    1.1344    0.0000 C   0  0  0  0  0  0  0  0  0  0  0  0
    6.4641    1.1344    0.0000 C   0  0  0  0  0  0  0  0  0  0  0  0
    9.0622   -0.3656    0.0000 C   0  0  0  0  0  0  0  0  0  0  0  0
    5.5981    1.6344    0.0000 C   0  0  0  0  0  0  0  0  0  0  0  0
    9.9282    1.1344    0.0000 C   0  0  0  0  0  0  0  0  0  0  0  0
    3.8660    2.6344    0.0000 C   0  0  0  0  0  0  0  0  0  0  0  0
   10.7942    1.6344    0.0000 C   0  0  0  0  0  0  0  0  0  0  0  0
    3.0000    4.1344    0.0000 C   0  0  0  0  0  0  0  0  0  0  0  0
   10.7942    2.6344    0.0000 C   0  0  0  0  0  0  0  0  0  0  0  0
   11.6603    1.1344    0.0000 C   0  0  0  0  0  0  0  0  0  0  0  0
    3.0000    5.1344    0.0000 C   0  0  0  0  0  0  0  0  0  0  0  0
    2.0000    4.1344    0.0000 C   0  0  0  0  0  0  0  0  0  0  0  0
    4.0000    4.1344    0.0000 C   0  0  0  0  0  0  0  0  0  0  0  0
   11.6603    3.1344    0.0000 C   0  0  0  0  0  0  0  0  0  0  0  0
   12.5263    1.6344    0.0000 C   0  0  0  0  0  0  0  0  0  0  0  0
   12.5263    2.6344    0.0000 C   0  0  0  0  0  0  0  0  0  0  0  0
    5.3309   -2.7051    0.0000 H   0  0  0  0  0  0  0  0  0  0  0  0
    3.6494   -3.5196    0.0000 H   0  0  0  0  0  0  0  0  0  0  0  0
    4.1244   -4.3422    0.0000 H   0  0  0  0  0  0  0  0  0  0  0  0
    5.3397   -4.3422    0.0000 H   0  0  0  0  0  0  0  0  0  0  0  0
    5.8147   -3.5196    0.0000 H   0  0  0  0  0  0  0  0  0  0  0  0
    4.5200   -1.2830    0.0000 H   0  0  0  0  0  0  0  0  0  0  0  0
    4.1215   -1.9732    0.0000 H   0  0  0  0  0  0  0  0  0  0  0  0
    5.5981   -1.9856    0.0000 H   0  0  0  0  0  0  0  0  0  0  0  0
    7.6592   -2.1756    0.0000 H   0  0  0  0  0  0  0  0  0  0  0  0
    7.5856   -2.7579    0.0000 H   0  0  0  0  0  0  0  0  0  0  0  0
    7.9841   -3.4482    0.0000 H   0  0  0  0  0  0  0  0  0  0  0  0
    8.5422   -3.7033    0.0000 H   0  0  0  0  0  0  0  0  0  0  0  0
    7.3301   -0.7456    0.0000 H   0  0  0  0  0  0  0  0  0  0  0  0
   10.4773   -2.5944    0.0000 H   0  0  0  0  0  0  0  0  0  0  0  0
    9.6657   -2.4219    0.0000 H   0  0  0  0  0  0  0  0  0  0  0  0
    9.0622   -1.9856    0.0000 H   0  0  0  0  0  0  0  0  0  0  0  0
    7.0010   -0.1756    0.0000 H   0  0  0  0  0  0  0  0  0  0  0  0
   11.1464   -4.0664    0.0000 H   0  0  0  0  0  0  0  0  0  0  0  0
   11.0597   -3.2412    0.0000 H   0  0  0  0  0  0  0  0  0  0  0  0
   10.3970   -5.1344    0.0000 H   0  0  0  0  0  0  0  0  0  0  0  0
    7.0010    1.4444    0.0000 H   0  0  0  0  0  0  0  0  0  0  0  0
    5.5981    2.2544    0.0000 H   0  0  0  0  0  0  0  0  0  0  0  0
   10.4651   -1.5556    0.0000 H   0  0  0  0  0  0  0  0  0  0  0  0
    3.3291    1.3244    0.0000 H   0  0  0  0  0  0  0  0  0  0  0  0
   10.4651   -0.1756    0.0000 H   0  0  0  0  0  0  0  0  0  0  0  0
    9.7162    1.7170    0.0000 H   0  0  0  0  0  0  0  0  0  0  0  0
    9.3176    1.0268    0.0000 H   0  0  0  0  0  0  0  0  0  0  0  0
   10.2573    2.9444    0.0000 H   0  0  0  0  0  0  0  0  0  0  0  0
   11.6603    0.5144    0.0000 H   0  0  0  0  0  0  0  0  0  0  0  0
    3.6200    5.1344    0.0000 H   0  0  0  0  0  0  0  0  0  0  0  0
    3.0000    5.7544    0.0000 H   0  0  0  0  0  0  0  0  0  0  0  0
    2.3800    5.1344    0.0000 H   0  0  0  0  0  0  0  0  0  0  0  0
    2.0000    4.7544    0.0000 H   0  0  0  0  0  0  0  0  0  0  0  0
    1.3800    4.1344    0.0000 H   0  0  0  0  0  0  0  0  0  0  0  0
    2.0000    3.5144    0.0000 H   0  0  0  0  0  0  0  0  0  0  0  0
    4.0000    3.5144    0.0000 H   0  0  0  0  0  0  0  0  0  0  0  0
    4.6200    4.1344    0.0000 H   0  0  0  0  0  0  0  0  0  0  0  0
    4.0000    4.7544    0.0000 H   0  0  0  0  0  0  0  0  0  0  0  0
   11.6603    3.7544    0.0000 H   0  0  0  0  0  0  0  0  0  0  0  0
   13.0632    1.3244    0.0000 H   0  0  0  0  0  0  0  0  0  0  0  0
   13.0632    2.9444    0.0000 H   0  0  0  0  0  0  0  0  0  0  0  0
  1 18  2  0  0  0  0
 23  2  1  6  0  0  0
  2 66  1  0  0  0  0
  3 24  2  0  0  0  0
  4 27  2  0  0  0  0
  5 30  2  0  0  0  0
  6 33  1  0  0  0  0
  6 35  1  0  0  0  0
  7 33  2  0  0  0  0
  8 17  1  0  0  0  0
  8 24  1  0  0  0  0
  8 25  1  0  0  0  0
  9 18  1  0  0  0  0
 19  9  1  6  0  0  0
  9 56  1  0  0  0  0
 10 26  1  0  0  0  0
 10 27  1  0  0  0  0
 10 63  1  0  0  0  0
 11 28  1  0  0  0  0
 11 33  1  0  0  0  0
 11 67  1  0  0  0  0
 12 30  1  0  0  0  0
 12 32  1  0  0  0  0
 12 68  1  0  0  0  0
 13 14  1  0  0  0  0
 13 15  1  0  0  0  0
 13 16  1  0  0  0  0
 13 44  1  0  0  0  0
 14 15  1  0  0  0  0
 14 45  1  0  0  0  0
 14 46  1  0  0  0  0
 15 47  1  0  0  0  0
 15 48  1  0  0  0  0
 17 16  1  6  0  0  0
 16 49  1  0  0  0  0
 16 50  1  0  0  0  0
 17 18  1  0  0  0  0
 17 51  1  0  0  0  0
 19 20  1  0  0  0  0
 19 23  1  0  0  0  0
 19 52  1  0  0  0  0
 21 20  1  6  0  0  0
 20 53  1  0  0  0  0
 20 54  1  0  0  0  0
 21 22  1  0  0  0  0
 21 27  1  0  0  0  0
 21 55  1  0  0  0  0
 22 26  1  0  0  0  0
 22 57  1  0  0  0  0
 22 58  1  0  0  0  0
 23 30  1  0  0  0  0
 23 59  1  0  0  0  0
 24 28  1  0  0  0  0
 25 29  2  0  0  0  0
 25 60  1  0  0  0  0
 26 61  1  0  0  0  0
 26 62  1  0  0  0  0
 28 31  2  0  0  0  0
 29 31  1  0  0  0  0
 29 64  1  0  0  0  0
 31 65  1  0  0  0  0
 32 34  1  0  0  0  0
 32 69  1  0  0  0  0
 32 70  1  0  0  0  0
 34 36  2  0  0  0  0
 34 37  1  0  0  0  0
 35 38  1  0  0  0  0
 35 39  1  0  0  0  0
 35 40  1  0  0  0  0
 36 41  1  0  0  0  0
 36 71  1  0  0  0  0
 37 42  2  0  0  0  0
 37 72  1  0  0  0  0
 38 73  1  0  0  0  0
 38 74  1  0  0  0  0
 38 75  1  0  0  0  0
 39 76  1  0  0  0  0
 39 77  1  0  0  0  0
 39 78  1  0  0  0  0
 40 79  1  0  0  0  0
 40 80  1  0  0  0  0
 40 81  1  0  0  0  0
 41 43  2  0  0  0  0
 41 82  1  0  0  0  0
 42 43  1  0  0  0  0
 42 83  1  0  0  0  0
 43 84  1  0  0  0  0
M  END
> <PUBCHEM_COMPOUND_CID>
146018708

> <PUBCHEM_COMPOUND_CANONICALIZED>
1

> <PUBCHEM_CACTVS_COMPLEXITY>
1120

> <PUBCHEM_CACTVS_HBOND_ACCEPTOR>
7

> <PUBCHEM_CACTVS_HBOND_DONOR>
5

> <PUBCHEM_CACTVS_ROTATABLE_BOND>
14

> <PUBCHEM_CACTVS_SUBSKEYS>
AAADcfB7uAAAAAAAAAAAAAAAGAAAAWAAAAAwQAAAAAAAAAABAAAAHgAQCAAADXzhmAYyCIPABgCIAiVWWAKCAAAgAgAIiIHIBMkKcDqA0TGcYAhklgCYiYec3ALOAAAAAAAAAAAAAAAAAAAAAAAAAAAAAA==

> <PUBCHEM_IUPAC_OPENEYE_NAME>
tert-butyl N-[1-[(1S)-2-[[(1S,2R)-3-(benzylamino)-2-hydroxy-3-oxo-1-[[(3S)-2-oxopyrrolidin-3-yl]methyl]propyl]amino]-1-(cyclopropylmethyl)-2-oxo-ethyl]-2-oxo-3-pyridyl]carbamate

> <PUBCHEM_IUPAC_CAS_NAME>
N-[1-[(2S)-3-cyclopropyl-1-[[(2S,3R)-3-hydroxy-4-oxo-1-[(3S)-2-oxo-3-pyrrolidinyl]-4-[(phenylmethyl)amino]butan-2-yl]amino]-1-oxopropan-2-yl]-2-oxo-3-pyridinyl]carbamic acid tert-butyl ester

> <PUBCHEM_IUPAC_NAME_MARKUP>
<I>tert</I>-butyl <I>N</I>-[1-[(2<I>S</I>)-1-[[(2<I>S</I>,3<I>R</I>)-4-(benzylamino)-3-hydroxy-4-oxo-1-[(3<I>S</I>)-2-oxopyrrolidin-3-yl]butan-2-yl]amino]-3-cyclopropyl-1-oxopropan-2-yl]-2-oxopyridin-3-yl]carbamate

> <PUBCHEM_IUPAC_NAME>
tert-butyl N-[1-[(2S)-1-[[(2S,3R)-4-(benzylamino)-3-hydroxy-4-oxo-1-[(3S)-2-oxopyrrolidin-3-yl]butan-2-yl]amino]-3-cyclopropyl-1-oxopropan-2-yl]-2-oxopyridin-3-yl]carbamate

> <PUBCHEM_IUPAC_SYSTEMATIC_NAME>
tert-butyl N-[1-[(2S)-3-cyclopropyl-1-oxidanylidene-1-[[(2S,3R)-3-oxidanyl-4-oxidanylidene-1-[(3S)-2-oxidanylidenepyrrolidin-3-yl]-4-[(phenylmethyl)amino]butan-2-yl]amino]propan-2-yl]-2-oxidanylidene-pyridin-3-yl]carbamate

> <PUBCHEM_IUPAC_TRADITIONAL_NAME>
N-[1-[(1S)-2-[[(1S,2R)-3-(benzylamino)-2-hydroxy-3-keto-1-[[(3S)-2-ketopyrrolidin-3-yl]methyl]propyl]amino]-1-(cyclopropylmethyl)-2-keto-ethyl]-2-keto-3-pyridyl]carbamic acid tert-butyl ester

> <PUBCHEM_IUPAC_INCHI>
InChI=1S/C31H41N5O7/c1-31(2,3)43-30(42)35-22-10-7-15-36(29(22)41)24(16-19-11-12-19)27(39)34-23(17-21-13-14-32-26(21)38)25(37)28(40)33-18-20-8-5-4-6-9-20/h4-10,15,19,21,23-25,37H,11-14,16-18H2,1-3H3,(H,32,38)(H,33,40)(H,34,39)(H,35,42)/t21-,23-,24-,25+/m0/s1

> <PUBCHEM_IUPAC_INCHIKEY>
FRACPXUHUTXLCX-BELIEFIBSA-N

> <PUBCHEM_XLOGP3_AA>
2

> <PUBCHEM_EXACT_MASS>
595.300599

> <PUBCHEM_MOLECULAR_FORMULA>
C31H41N5O7

> <PUBCHEM_MOLECULAR_WEIGHT>
595.7

> <PUBCHEM_OPENEYE_CAN_SMILES>
CC(C)(C)OC(=O)NC1=CC=CN(C1=O)C(CC2CC2)C(=O)NC(CC3CCNC3=O)C(C(=O)NCC4=CC=CC=C4)O

> <PUBCHEM_OPENEYE_ISO_SMILES>
CC(C)(C)OC(=O)NC1=CC=CN(C1=O)[C@@H](CC2CC2)C(=O)N[C@@H](C[C@@H]3CCNC3=O)[C@H](C(=O)NCC4=CC=CC=C4)O

> <PUBCHEM_CACTVS_TPSA>
166

> <PUBCHEM_MONOISOTOPIC_WEIGHT>
595.300599

> <PUBCHEM_TOTAL_CHARGE>
0

> <PUBCHEM_HEAVY_ATOM_COUNT>
43

> <PUBCHEM_ATOM_DEF_STEREO_COUNT>
4

> <PUBCHEM_ATOM_UDEF_STEREO_COUNT>
0

> <PUBCHEM_BOND_DEF_STEREO_COUNT>
0

> <PUBCHEM_BOND_UDEF_STEREO_COUNT>
0

> <PUBCHEM_ISOTOPIC_ATOM_COUNT>
0

> <PUBCHEM_COMPONENT_COUNT>
1

> <PUBCHEM_CACTVS_TAUTO_COUNT>
-1

> <PUBCHEM_COORDINATE_TYPE>
1
5
255

> <PUBCHEM_BONDANNOTATIONS>
17  16  6
23  2  6
21  20  6
24  28  8
25  29  8
28  31  8
29  31  8
34  36  8
34  37  8
36  41  8
37  42  8
41  43  8
42  43  8
8  24  8
8  25  8
19  9  6

$$$$
