16130571
  -OEChem-05242006132D

432431  0     1  0  0  0  0  0999 V2000
   21.5273    8.8450    0.0000 O   0  0  0  0  0  0  0  0  0  0  0  0
    9.1305    4.3450    0.0000 O   0  0  0  0  0  0  0  0  0  0  0  0
   13.3312   -2.6550    0.0000 O   0  0  0  0  0  0  0  0  0  0  0  0
   17.3267    1.8450    0.0000 O   0  0  0  0  0  0  0  0  0  0  0  0
   20.0587    4.3450    0.0000 O   0  0  0  0  0  0  0  0  0  0  0  0
   11.8626    1.8450    0.0000 O   0  0  0  0  0  0  0  0  0  0  0  0
   22.7908    1.8450    0.0000 O   0  0  0  0  0  0  0  0  0  0  0  0
   14.5946    4.3450    0.0000 O   0  0  0  0  0  0  0  0  0  0  0  0
   10.5991   -2.1550    0.0000 O   0  0  0  0  0  0  0  0  0  0  0  0
   18.7953   11.3450    0.0000 O   0  0  0  0  0  0  0  0  0  0  0  0
   16.0632   -5.1550    0.0000 O   0  0  0  0  0  0  0  0  0  0  0  0
    6.3985    1.8450    0.0000 O   0  0  0  0  0  0  0  0  0  0  0  0
    7.8671   -5.6550    0.0000 O   0  0  0  0  0  0  0  0  0  0  0  0
   10.5991   -5.1550    0.0000 O   0  0  0  0  0  0  0  0  0  0  0  0
    5.1350   -5.1550    0.0000 O   0  0  0  0  0  0  0  0  0  0  0  0
    7.8671   -2.6550    0.0000 O   0  0  0  0  0  0  0  0  0  0  0  0
   16.0632    8.8450    0.0000 O   0  0  0  0  0  0  0  0  0  0  0  0
   23.6568    6.3450    0.0000 O   0  0  0  0  0  0  0  0  0  0  0  0
   13.7286   -0.1550    0.0000 O   0  0  0  0  0  0  0  0  0  0  0  0
   18.7953   -2.6550    0.0000 O   0  0  0  0  0  0  0  0  0  0  0  0
    4.6664    5.8450    0.0000 O   0  0  0  0  0  0  0  0  0  0  0  0
   21.9247    6.3450    0.0000 O   0  0  0  0  0  0  0  0  0  0  0  0
   15.4606   -0.1550    0.0000 O   0  0  0  0  0  0  0  0  0  0  0  0
    3.8004    4.3450    0.0000 O   0  0  0  0  0  0  0  0  0  0  0  0
   18.6613   -0.6550    0.0000 O   0  0  0  0  0  0  0  0  0  0  0  0
   20.5273   -5.6550    0.0000 O   0  0  0  0  0  0  0  0  0  0  0  0
   15.1972   13.3450    0.0000 O   0  0  0  0  0  0  0  0  0  0  0  0
   13.3312   11.3450    0.0000 O   0  0  0  0  0  0  0  0  0  0  0  0
   16.9292   -0.6550    0.0000 O   0  0  0  0  0  0  0  0  0  0  0  0
   16.9292   13.3450    0.0000 O   0  0  0  0  0  0  0  0  0  0  0  0
   21.5273   -5.1550    0.0000 O   0  0  0  0  0  0  0  0  0  0  0  0
   14.1972    6.8450    0.0000 O   0  0  0  0  0  0  0  0  0  0  0  0
   23.2594   -2.1550    0.0000 O   0  0  0  0  0  0  0  0  0  0  0  0
   12.4651    6.8450    0.0000 O   0  0  0  0  0  0  0  0  0  0  0  0
   10.5991    8.8450    0.0000 O   0  0  0  0  0  0  0  0  0  0  0  0
   22.7908   -9.1550    0.0000 O   0  0  0  0  0  0  0  0  0  0  0  0
   22.7908  -12.1550    0.0000 O   0  0  0  0  0  0  0  0  0  0  0  0
   20.0587   -9.6550    0.0000 O   0  0  0  0  0  0  0  0  0  0  0  0
   17.3267  -12.1550    0.0000 O   0  0  0  0  0  0  0  0  0  0  0  0
    7.8671   11.3450    0.0000 O   0  0  0  0  0  0  0  0  0  0  0  0
   14.5946   -9.6550    0.0000 O   0  0  0  0  0  0  0  0  0  0  0  0
   20.0587  -13.6550    0.0000 O   0  0  0  0  0  0  0  0  0  0  0  0
   20.9247  -12.1550    0.0000 O   0  0  0  0  0  0  0  0  0  0  0  0
    7.0010    6.8450    0.0000 O   0  0  0  0  0  0  0  0  0  0  0  0
    8.7331    6.8450    0.0000 O   0  0  0  0  0  0  0  0  0  0  0  0
    4.2690   10.3450    0.0000 O   0  0  0  0  0  0  0  0  0  0  0  0
   11.8626  -12.1550    0.0000 O   0  0  0  0  0  0  0  0  0  0  0  0
    5.1350    8.8450    0.0000 O   0  0  0  0  0  0  0  0  0  0  0  0
    4.2690   11.3450    0.0000 O   0  0  0  0  0  0  0  0  0  0  0  0
    9.1305   -9.6550    0.0000 O   0  0  0  0  0  0  0  0  0  0  0  0
    6.3985  -12.1550    0.0000 O   0  0  0  0  0  0  0  0  0  0  0  0
    9.1305  -13.6550    0.0000 O   0  0  0  0  0  0  0  0  0  0  0  0
    9.9965  -12.1550    0.0000 O   0  0  0  0  0  0  0  0  0  0  0  0
    4.6664   -9.1550    0.0000 O   0  0  0  0  0  0  0  0  0  0  0  0
    5.5324  -12.6550    0.0000 O   0  0  0  0  0  0  0  0  0  0  0  0
   23.2594    9.8450    0.0000 N   0  0  0  0  0  0  0  0  0  0  0  0
   10.1305    2.8450    0.0000 N   0  0  0  0  0  0  0  0  0  0  0  0
   18.3267    3.3450    0.0000 N   0  0  0  0  0  0  0  0  0  0  0  0
   20.5273   10.3450    0.0000 N   0  0  0  0  0  0  0  0  0  0  0  0
   15.0632   -3.6550    0.0000 N   0  0  0  0  0  0  0  0  0  0  0  0
   15.5946    2.8450    0.0000 N   0  0  0  0  0  0  0  0  0  0  0  0
   21.0587    2.8450    0.0000 N   0  0  0  0  0  0  0  0  0  0  0  0
    7.3985    3.3450    0.0000 N   0  0  0  0  0  0  0  0  0  0  0  0
   12.8626    3.3450    0.0000 N   0  0  0  0  0  0  0  0  0  0  0  0
   12.3312   -4.1550    0.0000 N   0  0  0  0  0  0  0  0  0  0  0  0
   17.7953    9.8450    0.0000 N   0  0  0  0  0  0  0  0  0  0  0  0
    9.5991   -3.6550    0.0000 N   0  0  0  0  0  0  0  0  0  0  0  0
    6.8671   -4.1550    0.0000 N   0  0  0  0  0  0  0  0  0  0  0  0
    4.6664    2.8450    0.0000 N   0  0  0  0  0  0  0  0  0  0  0  0
   17.7953   -4.1550    0.0000 N   0  0  0  0  0  0  0  0  0  0  0  0
   15.0632   10.3450    0.0000 N   0  0  0  0  0  0  0  0  0  0  0  0
   10.9965    7.3450    0.0000 N   0  0  0  0  0  0  0  0  0  0  0  0
   21.7908    0.3450    0.0000 N   0  0  0  0  0  0  0  0  0  0  0  0
   19.0587    5.8450    0.0000 N   0  0  0  0  0  0  0  0  0  0  0  0
   20.5273   -3.6550    0.0000 N   0  0  0  0  0  0  0  0  0  0  0  0
    2.5369   -2.6550    0.0000 N   0  0  0  0  0  0  0  0  0  0  0  0
   12.3312    9.8450    0.0000 N   0  0  0  0  0  0  0  0  0  0  0  0
   23.2594   -4.1550    0.0000 N   0  0  0  0  0  0  0  0  0  0  0  0
    9.5991   10.3450    0.0000 N   0  0  0  0  0  0  0  0  0  0  0  0
   21.0587  -11.1550    0.0000 N   0  0  0  0  0  0  0  0  0  0  0  0
   18.3267  -10.6550    0.0000 N   0  0  0  0  0  0  0  0  0  0  0  0
   15.5946  -11.1550    0.0000 N   0  0  0  0  0  0  0  0  0  0  0  0
    6.8671    9.8450    0.0000 N   0  0  0  0  0  0  0  0  0  0  0  0
   12.8626  -10.6550    0.0000 N   0  0  0  0  0  0  0  0  0  0  0  0
   10.1305  -11.1550    0.0000 N   0  0  0  0  0  0  0  0  0  0  0  0
    5.1350   12.8450    0.0000 N   0  0  0  0  0  0  0  0  0  0  0  0
    7.3985  -10.6550    0.0000 N   0  0  0  0  0  0  0  0  0  0  0  0
    4.6664  -11.1550    0.0000 N   0  0  0  0  0  0  0  0  0  0  0  0
   14.1972   -5.1550    0.0000 C   0  0  2  0  0  0  0  0  0  0  0  0
   14.1972   -4.1550    0.0000 C   0  0  1  0  0  0  0  0  0  0  0  0
   22.3933   10.3450    0.0000 C   0  0  1  0  0  0  0  0  0  0  0  0
    8.2645    2.8450    0.0000 C   0  0  1  0  0  0  0  0  0  0  0  0
   10.9965    3.3450    0.0000 C   0  0  1  0  0  0  0  0  0  0  0  0
   19.1927    2.8450    0.0000 C   0  0  1  0  0  0  0  0  0  0  0  0
   16.4606    3.3450    0.0000 C   0  0  1  0  0  0  0  0  0  0  0  0
   22.3933   11.3450    0.0000 C   0  0  0  0  0  0  0  0  0  0  0  0
    8.2645    1.8450    0.0000 C   0  0  0  0  0  0  0  0  0  0  0  0
   19.6613    9.8450    0.0000 C   0  0  1  0  0  0  0  0  0  0  0  0
   21.9247    3.3450    0.0000 C   0  0  2  0  0  0  0  0  0  0  0  0
    9.1305    1.3450    0.0000 C   0  0  0  0  0  0  0  0  0  0  0  0
   10.9965    4.3450    0.0000 C   0  0  0  0  0  0  0  0  0  0  0  0
   19.1927    1.8450    0.0000 C   0  0  0  0  0  0  0  0  0  0  0  0
   16.4606    4.3450    0.0000 C   0  0  0  0  0  0  0  0  0  0  0  0
   13.7286    2.8450    0.0000 C   0  0  2  0  0  0  0  0  0  0  0  0
   19.6613    8.8450    0.0000 C   0  0  0  0  0  0  0  0  0  0  0  0
   13.3312   -5.6550    0.0000 C   0  0  0  0  0  0  0  0  0  0  0  0
   21.5273    9.8450    0.0000 C   0  0  0  0  0  0  0  0  0  0  0  0
    9.1305    3.3450    0.0000 C   0  0  0  0  0  0  0  0  0  0  0  0
   13.3312   -3.6550    0.0000 C   0  0  0  0  0  0  0  0  0  0  0  0
   17.3267    2.8450    0.0000 C   0  0  0  0  0  0  0  0  0  0  0  0
   11.4651   -3.6550    0.0000 C   0  0  1  0  0  0  0  0  0  0  0  0
   11.8626    4.8450    0.0000 C   0  0  0  0  0  0  0  0  0  0  0  0
   20.0587    1.3450    0.0000 C   0  0  0  0  0  0  0  0  0  0  0  0
   17.3267    4.8450    0.0000 C   0  0  0  0  0  0  0  0  0  0  0  0
   20.0587    3.3450    0.0000 C   0  0  0  0  0  0  0  0  0  0  0  0
   11.8626    2.8450    0.0000 C   0  0  0  0  0  0  0  0  0  0  0  0
   15.0632   -5.6550    0.0000 C   0  0  0  0  0  0  0  0  0  0  0  0
   22.7908    2.8450    0.0000 C   0  0  0  0  0  0  0  0  0  0  0  0
   21.9247    4.3450    0.0000 C   0  0  0  0  0  0  0  0  0  0  0  0
   14.5946    3.3450    0.0000 C   0  0  0  0  0  0  0  0  0  0  0  0
   13.7286    1.8450    0.0000 C   0  0  0  0  0  0  0  0  0  0  0  0
    6.0010   -3.6550    0.0000 C   0  0  1  0  0  0  0  0  0  0  0  0
    5.5324    3.3450    0.0000 C   0  0  2  0  0  0  0  0  0  0  0  0
   23.2594   11.8450    0.0000 C   0  0  0  0  0  0  0  0  0  0  0  0
   21.5273   11.8450    0.0000 C   0  0  0  0  0  0  0  0  0  0  0  0
   18.7953   10.3450    0.0000 C   0  0  0  0  0  0  0  0  0  0  0  0
    8.7331   -4.1550    0.0000 C   0  0  1  0  0  0  0  0  0  0  0  0
   16.9292   -3.6550    0.0000 C   0  0  2  0  0  0  0  0  0  0  0  0
    6.0010   -2.6550    0.0000 C   0  0  0  0  0  0  0  0  0  0  0  0
   11.4651   -2.6550    0.0000 C   0  0  1  0  0  0  0  0  0  0  0  0
   11.8626    5.8450    0.0000 C   0  0  0  0  0  0  0  0  0  0  0  0
   20.0587    0.3450    0.0000 C   0  0  0  0  0  0  0  0  0  0  0  0
   17.3267    5.8450    0.0000 C   0  0  0  0  0  0  0  0  0  0  0  0
   16.0632   -4.1550    0.0000 C   0  0  0  0  0  0  0  0  0  0  0  0
    6.3985    2.8450    0.0000 C   0  0  0  0  0  0  0  0  0  0  0  0
    9.1305    0.3450    0.0000 C   0  0  0  0  0  0  0  0  0  0  0  0
    9.9965    1.8450    0.0000 C   0  0  0  0  0  0  0  0  0  0  0  0
   20.5273    8.3450    0.0000 C   0  0  0  0  0  0  0  0  0  0  0  0
   18.7953    8.3450    0.0000 C   0  0  0  0  0  0  0  0  0  0  0  0
   13.3312   -6.6550    0.0000 C   0  0  0  0  0  0  0  0  0  0  0  0
   16.9292   10.3450    0.0000 C   0  0  1  0  0  0  0  0  0  0  0  0
   10.5991   -4.1550    0.0000 C   0  0  0  0  0  0  0  0  0  0  0  0
    5.1350   -2.1550    0.0000 C   0  0  0  0  0  0  0  0  0  0  0  0
    5.1350   -4.1550    0.0000 C   0  0  0  0  0  0  0  0  0  0  0  0
   22.7908    4.8450    0.0000 C   0  0  0  0  0  0  0  0  0  0  0  0
    8.7331   -5.1550    0.0000 C   0  0  1  0  0  0  0  0  0  0  0  0
   16.9292   -2.6550    0.0000 C   0  0  0  0  0  0  0  0  0  0  0  0
    7.8671   -3.6550    0.0000 C   0  0  0  0  0  0  0  0  0  0  0  0
   14.5946    1.3450    0.0000 C   0  0  0  0  0  0  0  0  0  0  0  0
    5.5324    4.3450    0.0000 C   0  0  0  0  0  0  0  0  0  0  0  0
   16.9292   11.3450    0.0000 C   0  0  0  0  0  0  0  0  0  0  0  0
   10.9965    6.3450    0.0000 C   0  0  0  0  0  0  0  0  0  0  0  0
   20.9247   -0.1550    0.0000 C   0  0  0  0  0  0  0  0  0  0  0  0
   18.1927    6.3450    0.0000 C   0  0  0  0  0  0  0  0  0  0  0  0
    4.2690   -2.6550    0.0000 C   0  0  0  0  0  0  0  0  0  0  0  0
   12.3312   -2.1550    0.0000 C   0  0  0  0  0  0  0  0  0  0  0  0
   16.0632    9.8450    0.0000 C   0  0  0  0  0  0  0  0  0  0  0  0
   17.7953   -2.1550    0.0000 C   0  0  0  0  0  0  0  0  0  0  0  0
    9.5991   -5.6550    0.0000 C   0  0  0  0  0  0  0  0  0  0  0  0
   16.0632   11.8450    0.0000 C   0  0  0  0  0  0  0  0  0  0  0  0
   14.1972    9.8450    0.0000 C   0  0  1  0  0  0  0  0  0  0  0  0
   18.7953   -3.6550    0.0000 C   0  0  0  0  0  0  0  0  0  0  0  0
    3.4030   -2.1550    0.0000 C   0  0  0  0  0  0  0  0  0  0  0  0
   22.7908    5.8450    0.0000 C   0  0  0  0  0  0  0  0  0  0  0  0
   19.6613   -4.1550    0.0000 C   0  0  2  0  0  0  0  0  0  0  0  0
   14.5946    0.3450    0.0000 C   0  0  0  0  0  0  0  0  0  0  0  0
    4.6664    4.8450    0.0000 C   0  0  0  0  0  0  0  0  0  0  0  0
   14.1972    8.8450    0.0000 C   0  0  0  0  0  0  0  0  0  0  0  0
   13.3312   10.3450    0.0000 C   0  0  0  0  0  0  0  0  0  0  0  0
   17.7953   -1.1550    0.0000 C   0  0  0  0  0  0  0  0  0  0  0  0
   19.6613   -5.1550    0.0000 C   0  0  0  0  0  0  0  0  0  0  0  0
   13.3312    8.3450    0.0000 C   0  0  0  0  0  0  0  0  0  0  0  0
   16.0632   12.8450    0.0000 C   0  0  0  0  0  0  0  0  0  0  0  0
   21.5273   -4.1550    0.0000 C   0  0  0  0  0  0  0  0  0  0  0  0
   11.4651   10.3450    0.0000 C   0  0  2  0  0  0  0  0  0  0  0  0
   22.3933   -3.6550    0.0000 C   0  0  2  0  0  0  0  0  0  0  0  0
   13.3312    7.3450    0.0000 C   0  0  0  0  0  0  0  0  0  0  0  0
   21.9247  -10.6550    0.0000 C   0  0  2  0  0  0  0  0  0  0  0  0
   22.3933   -2.6550    0.0000 C   0  0  0  0  0  0  0  0  0  0  0  0
   10.5991    9.8450    0.0000 C   0  0  0  0  0  0  0  0  0  0  0  0
   11.4651   11.3450    0.0000 C   0  0  0  0  0  0  0  0  0  0  0  0
   22.7908  -11.1550    0.0000 C   0  0  0  0  0  0  0  0  0  0  0  0
   16.4606  -10.6550    0.0000 C   0  0  1  0  0  0  0  0  0  0  0  0
    8.7331    9.8450    0.0000 C   0  0  1  0  0  0  0  0  0  0  0  0
   21.9247   -9.6550    0.0000 C   0  0  1  0  0  0  0  0  0  0  0  0
   16.4606   -9.6550    0.0000 C   0  0  0  0  0  0  0  0  0  0  0  0
   19.1927  -11.1550    0.0000 C   0  0  2  0  0  0  0  0  0  0  0  0
    8.7331    8.8450    0.0000 C   0  0  0  0  0  0  0  0  0  0  0  0
   20.0587  -10.6550    0.0000 C   0  0  0  0  0  0  0  0  0  0  0  0
   17.3267  -11.1550    0.0000 C   0  0  0  0  0  0  0  0  0  0  0  0
   19.1927  -12.1550    0.0000 C   0  0  0  0  0  0  0  0  0  0  0  0
   21.0587   -9.1550    0.0000 C   0  0  0  0  0  0  0  0  0  0  0  0
   17.3267   -9.1550    0.0000 C   0  0  0  0  0  0  0  0  0  0  0  0
   15.5946   -9.1550    0.0000 C   0  0  0  0  0  0  0  0  0  0  0  0
    7.8671   10.3450    0.0000 C   0  0  0  0  0  0  0  0  0  0  0  0
    7.8671    8.3450    0.0000 C   0  0  0  0  0  0  0  0  0  0  0  0
   14.5946  -10.6550    0.0000 C   0  0  0  0  0  0  0  0  0  0  0  0
   13.7286  -11.1550    0.0000 C   0  0  2  0  0  0  0  0  0  0  0  0
    6.0010   10.3450    0.0000 C   0  0  1  0  0  0  0  0  0  0  0  0
   20.0587  -12.6550    0.0000 C   0  0  0  0  0  0  0  0  0  0  0  0
    7.8671    7.3450    0.0000 C   0  0  0  0  0  0  0  0  0  0  0  0
   13.7286  -12.1550    0.0000 C   0  0  0  0  0  0  0  0  0  0  0  0
    6.0010   11.3450    0.0000 C   0  0  0  0  0  0  0  0  0  0  0  0
   11.8626  -11.1550    0.0000 C   0  0  0  0  0  0  0  0  0  0  0  0
   10.9965  -10.6550    0.0000 C   0  0  2  0  0  0  0  0  0  0  0  0
    5.1350    9.8450    0.0000 C   0  0  0  0  0  0  0  0  0  0  0  0
    5.1350   11.8450    0.0000 C   0  0  0  0  0  0  0  0  0  0  0  0
   10.9965   -9.6550    0.0000 C   0  0  0  0  0  0  0  0  0  0  0  0
    8.2645  -11.1550    0.0000 C   0  0  2  0  0  0  0  0  0  0  0  0
    9.1305  -10.6550    0.0000 C   0  0  0  0  0  0  0  0  0  0  0  0
    8.2645  -12.1550    0.0000 C   0  0  0  0  0  0  0  0  0  0  0  0
    6.3985  -11.1550    0.0000 C   0  0  0  0  0  0  0  0  0  0  0  0
    5.5324  -10.6550    0.0000 C   0  0  2  0  0  0  0  0  0  0  0  0
    9.1305  -12.6550    0.0000 C   0  0  0  0  0  0  0  0  0  0  0  0
    5.5324   -9.6550    0.0000 C   0  0  0  0  0  0  0  0  0  0  0  0
    4.6664  -12.1550    0.0000 C   0  0  0  0  0  0  0  0  0  0  0  0
    3.8004  -12.6550    0.0000 C   0  0  0  0  0  0  0  0  0  0  0  0
   14.1972   -5.7750    0.0000 H   0  0  0  0  0  0  0  0  0  0  0  0
   14.7341   -4.4650    0.0000 H   0  0  0  0  0  0  0  0  0  0  0  0
   22.9303   10.6550    0.0000 H   0  0  0  0  0  0  0  0  0  0  0  0
    7.7276    2.5350    0.0000 H   0  0  0  0  0  0  0  0  0  0  0  0
   10.4596    3.6550    0.0000 H   0  0  0  0  0  0  0  0  0  0  0  0
   19.1927    3.4650    0.0000 H   0  0  0  0  0  0  0  0  0  0  0  0
   15.9237    3.6550    0.0000 H   0  0  0  0  0  0  0  0  0  0  0  0
   22.3933   11.9650    0.0000 H   0  0  0  0  0  0  0  0  0  0  0  0
    7.6539    1.9527    0.0000 H   0  0  0  0  0  0  0  0  0  0  0  0
    8.0524    1.2624    0.0000 H   0  0  0  0  0  0  0  0  0  0  0  0
   19.6613   10.4650    0.0000 H   0  0  0  0  0  0  0  0  0  0  0  0
   21.3878    3.6550    0.0000 H   0  0  0  0  0  0  0  0  0  0  0  0
    9.6675    1.0350    0.0000 H   0  0  0  0  0  0  0  0  0  0  0  0
   10.7845    4.9276    0.0000 H   0  0  0  0  0  0  0  0  0  0  0  0
   10.3860    4.2373    0.0000 H   0  0  0  0  0  0  0  0  0  0  0  0
   18.5821    1.9527    0.0000 H   0  0  0  0  0  0  0  0  0  0  0  0
   18.9806    1.2624    0.0000 H   0  0  0  0  0  0  0  0  0  0  0  0
   16.2486    4.9276    0.0000 H   0  0  0  0  0  0  0  0  0  0  0  0
   15.8501    4.2373    0.0000 H   0  0  0  0  0  0  0  0  0  0  0  0
   13.1917    2.5350    0.0000 H   0  0  0  0  0  0  0  0  0  0  0  0
   20.1982    9.1550    0.0000 H   0  0  0  0  0  0  0  0  0  0  0  0
   13.1191   -5.0724    0.0000 H   0  0  0  0  0  0  0  0  0  0  0  0
   12.7206   -5.7627    0.0000 H   0  0  0  0  0  0  0  0  0  0  0  0
   23.7963    9.5350    0.0000 H   0  0  0  0  0  0  0  0  0  0  0  0
   10.6675    2.5350    0.0000 H   0  0  0  0  0  0  0  0  0  0  0  0
   18.8636    3.6550    0.0000 H   0  0  0  0  0  0  0  0  0  0  0  0
   12.0021   -3.3450    0.0000 H   0  0  0  0  0  0  0  0  0  0  0  0
   12.0746    4.2624    0.0000 H   0  0  0  0  0  0  0  0  0  0  0  0
   12.4732    4.9527    0.0000 H   0  0  0  0  0  0  0  0  0  0  0  0
   20.6693    1.2373    0.0000 H   0  0  0  0  0  0  0  0  0  0  0  0
   20.2708    1.9276    0.0000 H   0  0  0  0  0  0  0  0  0  0  0  0
   17.5387    4.2624    0.0000 H   0  0  0  0  0  0  0  0  0  0  0  0
   17.9373    4.9527    0.0000 H   0  0  0  0  0  0  0  0  0  0  0  0
   21.0642   10.6550    0.0000 H   0  0  0  0  0  0  0  0  0  0  0  0
   14.7532   -6.1919    0.0000 H   0  0  0  0  0  0  0  0  0  0  0  0
   15.6001   -5.9650    0.0000 H   0  0  0  0  0  0  0  0  0  0  0  0
   15.3732   -5.1181    0.0000 H   0  0  0  0  0  0  0  0  0  0  0  0
   15.6001   -3.3450    0.0000 H   0  0  0  0  0  0  0  0  0  0  0  0
   16.1316    2.5350    0.0000 H   0  0  0  0  0  0  0  0  0  0  0  0
   21.7127    4.9276    0.0000 H   0  0  0  0  0  0  0  0  0  0  0  0
   21.3142    4.2373    0.0000 H   0  0  0  0  0  0  0  0  0  0  0  0
   21.5957    2.5350    0.0000 H   0  0  0  0  0  0  0  0  0  0  0  0
    7.9354    3.6550    0.0000 H   0  0  0  0  0  0  0  0  0  0  0  0
   13.3995    3.6550    0.0000 H   0  0  0  0  0  0  0  0  0  0  0  0
   13.1180    1.9527    0.0000 H   0  0  0  0  0  0  0  0  0  0  0  0
   13.5165    1.2624    0.0000 H   0  0  0  0  0  0  0  0  0  0  0  0
    6.5380   -3.3450    0.0000 H   0  0  0  0  0  0  0  0  0  0  0  0
   12.8681   -4.4650    0.0000 H   0  0  0  0  0  0  0  0  0  0  0  0
    4.9955    3.6550    0.0000 H   0  0  0  0  0  0  0  0  0  0  0  0
   23.5694   11.3081    0.0000 H   0  0  0  0  0  0  0  0  0  0  0  0
   23.7963   12.1550    0.0000 H   0  0  0  0  0  0  0  0  0  0  0  0
   22.9494   12.3819    0.0000 H   0  0  0  0  0  0  0  0  0  0  0  0
   21.8373   12.3819    0.0000 H   0  0  0  0  0  0  0  0  0  0  0  0
   20.9904   12.1550    0.0000 H   0  0  0  0  0  0  0  0  0  0  0  0
   21.2173   11.3081    0.0000 H   0  0  0  0  0  0  0  0  0  0  0  0
    9.2700   -4.4650    0.0000 H   0  0  0  0  0  0  0  0  0  0  0  0
   17.4662   -3.3450    0.0000 H   0  0  0  0  0  0  0  0  0  0  0  0
    6.6116   -2.7627    0.0000 H   0  0  0  0  0  0  0  0  0  0  0  0
    6.2131   -2.0724    0.0000 H   0  0  0  0  0  0  0  0  0  0  0  0
   10.9282   -2.9650    0.0000 H   0  0  0  0  0  0  0  0  0  0  0  0
   12.4732    5.7373    0.0000 H   0  0  0  0  0  0  0  0  0  0  0  0
   12.0746    6.4276    0.0000 H   0  0  0  0  0  0  0  0  0  0  0  0
   19.4481    0.4527    0.0000 H   0  0  0  0  0  0  0  0  0  0  0  0
   19.8467   -0.2376    0.0000 H   0  0  0  0  0  0  0  0  0  0  0  0
   17.1146    6.4276    0.0000 H   0  0  0  0  0  0  0  0  0  0  0  0
   16.7161    5.7373    0.0000 H   0  0  0  0  0  0  0  0  0  0  0  0
    8.5105    0.3450    0.0000 H   0  0  0  0  0  0  0  0  0  0  0  0
    9.1305   -0.2750    0.0000 H   0  0  0  0  0  0  0  0  0  0  0  0
    9.7505    0.3450    0.0000 H   0  0  0  0  0  0  0  0  0  0  0  0
   10.3065    1.3081    0.0000 H   0  0  0  0  0  0  0  0  0  0  0  0
   10.5335    2.1550    0.0000 H   0  0  0  0  0  0  0  0  0  0  0  0
    9.6866    2.3819    0.0000 H   0  0  0  0  0  0  0  0  0  0  0  0
   20.2173    7.8081    0.0000 H   0  0  0  0  0  0  0  0  0  0  0  0
   21.0642    8.0350    0.0000 H   0  0  0  0  0  0  0  0  0  0  0  0
   20.8373    8.8819    0.0000 H   0  0  0  0  0  0  0  0  0  0  0  0
   18.4853    8.8819    0.0000 H   0  0  0  0  0  0  0  0  0  0  0  0
   18.2583    8.0350    0.0000 H   0  0  0  0  0  0  0  0  0  0  0  0
   19.1053    7.8081    0.0000 H   0  0  0  0  0  0  0  0  0  0  0  0
   12.7112   -6.6550    0.0000 H   0  0  0  0  0  0  0  0  0  0  0  0
   13.3312   -7.2750    0.0000 H   0  0  0  0  0  0  0  0  0  0  0  0
   13.9512   -6.6550    0.0000 H   0  0  0  0  0  0  0  0  0  0  0  0
   17.4662   10.6550    0.0000 H   0  0  0  0  0  0  0  0  0  0  0  0
    5.5335   -1.6800    0.0000 H   0  0  0  0  0  0  0  0  0  0  0  0
    4.7365   -1.6800    0.0000 H   0  0  0  0  0  0  0  0  0  0  0  0
   18.3322    9.5350    0.0000 H   0  0  0  0  0  0  0  0  0  0  0  0
   10.1360   -3.3450    0.0000 H   0  0  0  0  0  0  0  0  0  0  0  0
   23.0028    4.2624    0.0000 H   0  0  0  0  0  0  0  0  0  0  0  0
   23.4014    4.9527    0.0000 H   0  0  0  0  0  0  0  0  0  0  0  0
    7.4040   -4.4650    0.0000 H   0  0  0  0  0  0  0  0  0  0  0  0
    5.2034    2.5350    0.0000 H   0  0  0  0  0  0  0  0  0  0  0  0
    8.7331   -5.7750    0.0000 H   0  0  0  0  0  0  0  0  0  0  0  0
   16.7172   -2.0724    0.0000 H   0  0  0  0  0  0  0  0  0  0  0  0
   16.3187   -2.7627    0.0000 H   0  0  0  0  0  0  0  0  0  0  0  0
   15.2052    1.2373    0.0000 H   0  0  0  0  0  0  0  0  0  0  0  0
   14.8067    1.9276    0.0000 H   0  0  0  0  0  0  0  0  0  0  0  0
    6.1430    4.2373    0.0000 H   0  0  0  0  0  0  0  0  0  0  0  0
    5.7445    4.9276    0.0000 H   0  0  0  0  0  0  0  0  0  0  0  0
   17.5398   11.2373    0.0000 H   0  0  0  0  0  0  0  0  0  0  0  0
   17.1413   11.9276    0.0000 H   0  0  0  0  0  0  0  0  0  0  0  0
   10.3860    6.4527    0.0000 H   0  0  0  0  0  0  0  0  0  0  0  0
   10.7845    5.7624    0.0000 H   0  0  0  0  0  0  0  0  0  0  0  0
   20.5262   -0.6299    0.0000 H   0  0  0  0  0  0  0  0  0  0  0  0
   21.3233   -0.6299    0.0000 H   0  0  0  0  0  0  0  0  0  0  0  0
   18.5912    6.8200    0.0000 H   0  0  0  0  0  0  0  0  0  0  0  0
   17.7942    6.8200    0.0000 H   0  0  0  0  0  0  0  0  0  0  0  0
    3.8705   -3.1300    0.0000 H   0  0  0  0  0  0  0  0  0  0  0  0
    4.6675   -3.1300    0.0000 H   0  0  0  0  0  0  0  0  0  0  0  0
   18.3322   -4.4650    0.0000 H   0  0  0  0  0  0  0  0  0  0  0  0
   12.6412   -2.6919    0.0000 H   0  0  0  0  0  0  0  0  0  0  0  0
   12.8681   -1.8450    0.0000 H   0  0  0  0  0  0  0  0  0  0  0  0
   12.0212   -1.6181    0.0000 H   0  0  0  0  0  0  0  0  0  0  0  0
   18.0073   -2.7376    0.0000 H   0  0  0  0  0  0  0  0  0  0  0  0
   18.4058   -2.0473    0.0000 H   0  0  0  0  0  0  0  0  0  0  0  0
    9.2891   -6.1919    0.0000 H   0  0  0  0  0  0  0  0  0  0  0  0
   10.1360   -5.9650    0.0000 H   0  0  0  0  0  0  0  0  0  0  0  0
    9.9091   -5.1181    0.0000 H   0  0  0  0  0  0  0  0  0  0  0  0
   15.4526   11.9527    0.0000 H   0  0  0  0  0  0  0  0  0  0  0  0
   15.8512   11.2624    0.0000 H   0  0  0  0  0  0  0  0  0  0  0  0
   14.7341    9.5350    0.0000 H   0  0  0  0  0  0  0  0  0  0  0  0
   15.6001   10.6550    0.0000 H   0  0  0  0  0  0  0  0  0  0  0  0
    3.8015   -1.6800    0.0000 H   0  0  0  0  0  0  0  0  0  0  0  0
    3.0044   -1.6800    0.0000 H   0  0  0  0  0  0  0  0  0  0  0  0
   10.5991   -1.5350    0.0000 H   0  0  0  0  0  0  0  0  0  0  0  0
   20.1982   -4.4650    0.0000 H   0  0  0  0  0  0  0  0  0  0  0  0
   14.4092    8.2624    0.0000 H   0  0  0  0  0  0  0  0  0  0  0  0
   14.8078    8.9527    0.0000 H   0  0  0  0  0  0  0  0  0  0  0  0
    7.8671   -6.2750    0.0000 H   0  0  0  0  0  0  0  0  0  0  0  0
   10.4596    7.6550    0.0000 H   0  0  0  0  0  0  0  0  0  0  0  0
   11.5335    7.6550    0.0000 H   0  0  0  0  0  0  0  0  0  0  0  0
   22.3277    0.0350    0.0000 H   0  0  0  0  0  0  0  0  0  0  0  0
   21.7908    0.9650    0.0000 H   0  0  0  0  0  0  0  0  0  0  0  0
   19.5957    6.1550    0.0000 H   0  0  0  0  0  0  0  0  0  0  0  0
   19.0587    5.2250    0.0000 H   0  0  0  0  0  0  0  0  0  0  0  0
   19.0507   -5.0473    0.0000 H   0  0  0  0  0  0  0  0  0  0  0  0
   19.4492   -5.7376    0.0000 H   0  0  0  0  0  0  0  0  0  0  0  0
   21.0642   -3.3450    0.0000 H   0  0  0  0  0  0  0  0  0  0  0  0
   13.1191    8.9276    0.0000 H   0  0  0  0  0  0  0  0  0  0  0  0
   12.7206    8.2373    0.0000 H   0  0  0  0  0  0  0  0  0  0  0  0
    2.0000   -2.3450    0.0000 H   0  0  0  0  0  0  0  0  0  0  0  0
    2.5369   -3.2750    0.0000 H   0  0  0  0  0  0  0  0  0  0  0  0
   12.8681    9.5350    0.0000 H   0  0  0  0  0  0  0  0  0  0  0  0
   12.0021   10.6550    0.0000 H   0  0  0  0  0  0  0  0  0  0  0  0
   22.3933   -4.2750    0.0000 H   0  0  0  0  0  0  0  0  0  0  0  0
   24.1937    6.0350    0.0000 H   0  0  0  0  0  0  0  0  0  0  0  0
   13.1917    0.1550    0.0000 H   0  0  0  0  0  0  0  0  0  0  0  0
    4.1295    6.1550    0.0000 H   0  0  0  0  0  0  0  0  0  0  0  0
   23.7963   -4.4650    0.0000 H   0  0  0  0  0  0  0  0  0  0  0  0
   21.3878  -10.3450    0.0000 H   0  0  0  0  0  0  0  0  0  0  0  0
   22.1813   -2.0724    0.0000 H   0  0  0  0  0  0  0  0  0  0  0  0
   21.7828   -2.7627    0.0000 H   0  0  0  0  0  0  0  0  0  0  0  0
   19.1982   -0.9650    0.0000 H   0  0  0  0  0  0  0  0  0  0  0  0
   12.0851   11.3450    0.0000 H   0  0  0  0  0  0  0  0  0  0  0  0
   11.4651   11.9650    0.0000 H   0  0  0  0  0  0  0  0  0  0  0  0
   10.8451   11.3450    0.0000 H   0  0  0  0  0  0  0  0  0  0  0  0
   20.5273   -6.2750    0.0000 H   0  0  0  0  0  0  0  0  0  0  0  0
   15.1972   13.9650    0.0000 H   0  0  0  0  0  0  0  0  0  0  0  0
   15.9237  -10.3450    0.0000 H   0  0  0  0  0  0  0  0  0  0  0  0
    9.2700    9.5350    0.0000 H   0  0  0  0  0  0  0  0  0  0  0  0
   21.9247   -9.0350    0.0000 H   0  0  0  0  0  0  0  0  0  0  0  0
   16.9976   -9.9650    0.0000 H   0  0  0  0  0  0  0  0  0  0  0  0
   10.1360   10.6550    0.0000 H   0  0  0  0  0  0  0  0  0  0  0  0
   18.6558  -11.4650    0.0000 H   0  0  0  0  0  0  0  0  0  0  0  0
   21.5957  -11.4650    0.0000 H   0  0  0  0  0  0  0  0  0  0  0  0
    8.9451    8.2624    0.0000 H   0  0  0  0  0  0  0  0  0  0  0  0
    9.3437    8.9527    0.0000 H   0  0  0  0  0  0  0  0  0  0  0  0
   18.8636  -10.3450    0.0000 H   0  0  0  0  0  0  0  0  0  0  0  0
   18.5821  -12.0473    0.0000 H   0  0  0  0  0  0  0  0  0  0  0  0
   18.9806  -12.7376    0.0000 H   0  0  0  0  0  0  0  0  0  0  0  0
   16.1316  -11.4650    0.0000 H   0  0  0  0  0  0  0  0  0  0  0  0
   21.3687   -8.6181    0.0000 H   0  0  0  0  0  0  0  0  0  0  0  0
   20.5218   -8.8450    0.0000 H   0  0  0  0  0  0  0  0  0  0  0  0
   20.7487   -9.6919    0.0000 H   0  0  0  0  0  0  0  0  0  0  0  0
   17.6367   -9.6919    0.0000 H   0  0  0  0  0  0  0  0  0  0  0  0
   17.8636   -8.8450    0.0000 H   0  0  0  0  0  0  0  0  0  0  0  0
   17.0167   -8.6181    0.0000 H   0  0  0  0  0  0  0  0  0  0  0  0
   15.9046   -8.6181    0.0000 H   0  0  0  0  0  0  0  0  0  0  0  0
   15.0577   -8.8450    0.0000 H   0  0  0  0  0  0  0  0  0  0  0  0
   15.2846   -9.6919    0.0000 H   0  0  0  0  0  0  0  0  0  0  0  0
   14.7341    7.1550    0.0000 H   0  0  0  0  0  0  0  0  0  0  0  0
    7.6550    8.9276    0.0000 H   0  0  0  0  0  0  0  0  0  0  0  0
    7.2565    8.2373    0.0000 H   0  0  0  0  0  0  0  0  0  0  0  0
   23.2594   -1.5350    0.0000 H   0  0  0  0  0  0  0  0  0  0  0  0
   13.1917  -11.4650    0.0000 H   0  0  0  0  0  0  0  0  0  0  0  0
   23.3277   -9.4650    0.0000 H   0  0  0  0  0  0  0  0  0  0  0  0
    7.4040    9.5350    0.0000 H   0  0  0  0  0  0  0  0  0  0  0  0
    6.5380   10.6550    0.0000 H   0  0  0  0  0  0  0  0  0  0  0  0
   13.1086  -12.1550    0.0000 H   0  0  0  0  0  0  0  0  0  0  0  0
   13.7286  -12.7750    0.0000 H   0  0  0  0  0  0  0  0  0  0  0  0
   14.3486  -12.1550    0.0000 H   0  0  0  0  0  0  0  0  0  0  0  0
   13.3995  -10.3450    0.0000 H   0  0  0  0  0  0  0  0  0  0  0  0
    6.6116   11.2373    0.0000 H   0  0  0  0  0  0  0  0  0  0  0  0
    6.2131   11.9276    0.0000 H   0  0  0  0  0  0  0  0  0  0  0  0
   10.4596  -10.3450    0.0000 H   0  0  0  0  0  0  0  0  0  0  0  0
   20.5957  -13.9650    0.0000 H   0  0  0  0  0  0  0  0  0  0  0  0
   10.6675  -11.4650    0.0000 H   0  0  0  0  0  0  0  0  0  0  0  0
   11.6165   -9.6550    0.0000 H   0  0  0  0  0  0  0  0  0  0  0  0
   10.9965   -9.0350    0.0000 H   0  0  0  0  0  0  0  0  0  0  0  0
   10.3765   -9.6550    0.0000 H   0  0  0  0  0  0  0  0  0  0  0  0
    6.4641    7.1550    0.0000 H   0  0  0  0  0  0  0  0  0  0  0  0
    7.7276  -11.4650    0.0000 H   0  0  0  0  0  0  0  0  0  0  0  0
    3.7320   10.0350    0.0000 H   0  0  0  0  0  0  0  0  0  0  0  0
    7.6539  -12.0473    0.0000 H   0  0  0  0  0  0  0  0  0  0  0  0
    8.0524  -12.7376    0.0000 H   0  0  0  0  0  0  0  0  0  0  0  0
    4.5981   13.1550    0.0000 H   0  0  0  0  0  0  0  0  0  0  0  0
    5.6720   13.1550    0.0000 H   0  0  0  0  0  0  0  0  0  0  0  0
    7.9354  -10.3450    0.0000 H   0  0  0  0  0  0  0  0  0  0  0  0
    4.9955  -10.3450    0.0000 H   0  0  0  0  0  0  0  0  0  0  0  0
    6.1430   -9.7627    0.0000 H   0  0  0  0  0  0  0  0  0  0  0  0
    5.7445   -9.0724    0.0000 H   0  0  0  0  0  0  0  0  0  0  0  0
    5.2034  -10.8450    0.0000 H   0  0  0  0  0  0  0  0  0  0  0  0
    8.5936  -13.9650    0.0000 H   0  0  0  0  0  0  0  0  0  0  0  0
    4.6664   -8.5350    0.0000 H   0  0  0  0  0  0  0  0  0  0  0  0
    3.4904  -12.1181    0.0000 H   0  0  0  0  0  0  0  0  0  0  0  0
    3.2635  -12.9650    0.0000 H   0  0  0  0  0  0  0  0  0  0  0  0
    4.1104  -13.1919    0.0000 H   0  0  0  0  0  0  0  0  0  0  0  0
  1107  2  0  0  0  0
  2108  2  0  0  0  0
  3109  2  0  0  0  0
  4110  2  0  0  0  0
  5115  2  0  0  0  0
  6116  2  0  0  0  0
  7118  2  0  0  0  0
  8120  2  0  0  0  0
130  9  1  6  0  0  0
  9340  1  0  0  0  0
 10126  2  0  0  0  0
 11134  2  0  0  0  0
 12135  2  0  0  0  0
146 13  1  1  0  0  0
 13344  1  0  0  0  0
 14142  2  0  0  0  0
 15144  2  0  0  0  0
 16148  2  0  0  0  0
 17157  2  0  0  0  0
 18164  1  0  0  0  0
 18361  1  0  0  0  0
 19166  1  0  0  0  0
 19362  1  0  0  0  0
 20162  2  0  0  0  0
 21167  1  0  0  0  0
 21363  1  0  0  0  0
 22164  2  0  0  0  0
 23166  2  0  0  0  0
 24167  2  0  0  0  0
 25170  1  0  0  0  0
 25368  1  0  0  0  0
 26171  1  0  0  0  0
 26372  1  0  0  0  0
 27173  1  0  0  0  0
 27373  1  0  0  0  0
 28169  2  0  0  0  0
 29170  2  0  0  0  0
 30173  2  0  0  0  0
 31174  2  0  0  0  0
 32177  1  0  0  0  0
 32396  1  0  0  0  0
 33179  1  0  0  0  0
 33399  1  0  0  0  0
 34177  2  0  0  0  0
 35180  2  0  0  0  0
185 36  1  1  0  0  0
 36401  1  0  0  0  0
 37182  2  0  0  0  0
 38189  2  0  0  0  0
 39190  2  0  0  0  0
 40195  2  0  0  0  0
 41197  2  0  0  0  0
 42200  1  0  0  0  0
 42411  1  0  0  0  0
 43200  2  0  0  0  0
 44201  1  0  0  0  0
 44416  1  0  0  0  0
 45201  2  0  0  0  0
 46206  1  0  0  0  0
 46418  1  0  0  0  0
 47204  2  0  0  0  0
 48206  2  0  0  0  0
 49207  2  0  0  0  0
 50210  2  0  0  0  0
 51212  2  0  0  0  0
 52214  1  0  0  0  0
 52428  1  0  0  0  0
 53214  2  0  0  0  0
 54215  1  0  0  0  0
 54429  1  0  0  0  0
 55216  2  0  0  0  0
 91 56  1  6  0  0  0
 56118  1  0  0  0  0
 56241  1  0  0  0  0
 93 57  1  1  0  0  0
 57108  1  0  0  0  0
 57242  1  0  0  0  0
 94 58  1  6  0  0  0
 58110  1  0  0  0  0
 58243  1  0  0  0  0
 98 59  1  1  0  0  0
 59107  1  0  0  0  0
 59251  1  0  0  0  0
 90 60  1  1  0  0  0
 60134  1  0  0  0  0
 60255  1  0  0  0  0
 95 61  1  1  0  0  0
 61120  1  0  0  0  0
 61256  1  0  0  0  0
 99 62  1  1  0  0  0
 62115  1  0  0  0  0
 62259  1  0  0  0  0
 92 63  1  6  0  0  0
 63135  1  0  0  0  0
 63260  1  0  0  0  0
104 64  1  6  0  0  0
 64116  1  0  0  0  0
 64261  1  0  0  0  0
 65109  1  0  0  0  0
111 65  1  6  0  0  0
 65265  1  0  0  0  0
 66126  1  0  0  0  0
141 66  1  6  0  0  0
 66302  1  0  0  0  0
127 67  1  1  0  0  0
 67142  1  0  0  0  0
 67303  1  0  0  0  0
122 68  1  6  0  0  0
 68148  1  0  0  0  0
 68306  1  0  0  0  0
123 69  1  1  0  0  0
 69144  1  0  0  0  0
 69307  1  0  0  0  0
128 70  1  6  0  0  0
 70162  1  0  0  0  0
 70325  1  0  0  0  0
 71157  1  0  0  0  0
161 71  1  1  0  0  0
 71337  1  0  0  0  0
 72152  1  0  0  0  0
 72345  1  0  0  0  0
 72346  1  0  0  0  0
 73153  1  0  0  0  0
 73347  1  0  0  0  0
 73348  1  0  0  0  0
 74154  1  0  0  0  0
 74349  1  0  0  0  0
 74350  1  0  0  0  0
165 75  1  1  0  0  0
 75174  1  0  0  0  0
 75353  1  0  0  0  0
 76163  1  0  0  0  0
 76356  1  0  0  0  0
 76357  1  0  0  0  0
 77169  1  0  0  0  0
175 77  1  6  0  0  0
 77358  1  0  0  0  0
176 78  1  6  0  0  0
 78182  1  0  0  0  0
 78364  1  0  0  0  0
 79180  1  0  0  0  0
184 79  1  1  0  0  0
 79378  1  0  0  0  0
178 80  1  1  0  0  0
 80189  1  0  0  0  0
 80380  1  0  0  0  0
187 81  1  6  0  0  0
 81190  1  0  0  0  0
 81383  1  0  0  0  0
183 82  1  1  0  0  0
 82197  1  0  0  0  0
 82386  1  0  0  0  0
 83195  1  0  0  0  0
199 83  1  6  0  0  0
 83402  1  0  0  0  0
198 84  1  6  0  0  0
 84204  1  0  0  0  0
 84407  1  0  0  0  0
205 85  1  1  0  0  0
 85210  1  0  0  0  0
 85412  1  0  0  0  0
 86207  1  0  0  0  0
 86421  1  0  0  0  0
 86422  1  0  0  0  0
209 87  1  6  0  0  0
 87212  1  0  0  0  0
 87423  1  0  0  0  0
213 88  1  1  0  0  0
 88216  1  0  0  0  0
 88427  1  0  0  0  0
 89 90  1  0  0  0  0
 89106  1  0  0  0  0
 89117  1  1  0  0  0
 89218  1  0  0  0  0
 90109  1  0  0  0  0
 90219  1  0  0  0  0
 91 96  1  0  0  0  0
 91107  1  0  0  0  0
 91220  1  0  0  0  0
 92 97  1  0  0  0  0
 92108  1  0  0  0  0
 92221  1  0  0  0  0
 93101  1  0  0  0  0
 93116  1  0  0  0  0
 93222  1  0  0  0  0
 94102  1  0  0  0  0
 94115  1  0  0  0  0
 94223  1  0  0  0  0
 95103  1  0  0  0  0
 95110  1  0  0  0  0
 95224  1  0  0  0  0
 96124  1  0  0  0  0
 96125  1  0  0  0  0
 96225  1  0  0  0  0
 97100  1  0  0  0  0
 97226  1  0  0  0  0
 97227  1  0  0  0  0
 98105  1  0  0  0  0
 98126  1  0  0  0  0
 98228  1  0  0  0  0
 99118  1  0  0  0  0
 99119  1  0  0  0  0
 99229  1  0  0  0  0
100136  1  0  0  0  0
100137  1  0  0  0  0
100230  1  0  0  0  0
101112  1  0  0  0  0
101231  1  0  0  0  0
101232  1  0  0  0  0
102113  1  0  0  0  0
102233  1  0  0  0  0
102234  1  0  0  0  0
103114  1  0  0  0  0
103235  1  0  0  0  0
103236  1  0  0  0  0
104120  1  0  0  0  0
104121  1  0  0  0  0
104237  1  0  0  0  0
105138  1  0  0  0  0
105139  1  0  0  0  0
105238  1  0  0  0  0
106140  1  0  0  0  0
106239  1  0  0  0  0
106240  1  0  0  0  0
111130  1  0  0  0  0
111142  1  0  0  0  0
111244  1  0  0  0  0
112131  1  0  0  0  0
112245  1  0  0  0  0
112246  1  0  0  0  0
113132  1  0  0  0  0
113247  1  0  0  0  0
113248  1  0  0  0  0
114133  1  0  0  0  0
114249  1  0  0  0  0
114250  1  0  0  0  0
117252  1  0  0  0  0
117253  1  0  0  0  0
117254  1  0  0  0  0
119145  1  0  0  0  0
119257  1  0  0  0  0
119258  1  0  0  0  0
121149  1  0  0  0  0
121262  1  0  0  0  0
121263  1  0  0  0  0
122129  1  0  0  0  0
122144  1  0  0  0  0
122264  1  0  0  0  0
123135  1  0  0  0  0
123150  1  0  0  0  0
123266  1  0  0  0  0
124267  1  0  0  0  0
124268  1  0  0  0  0
124269  1  0  0  0  0
125270  1  0  0  0  0
125271  1  0  0  0  0
125272  1  0  0  0  0
127146  1  0  0  0  0
127148  1  0  0  0  0
127273  1  0  0  0  0
128134  1  0  0  0  0
128147  1  0  0  0  0
128274  1  0  0  0  0
129143  1  0  0  0  0
129275  1  0  0  0  0
129276  1  0  0  0  0
130156  1  0  0  0  0
130277  1  0  0  0  0
131152  1  0  0  0  0
131278  1  0  0  0  0
131279  1  0  0  0  0
132153  1  0  0  0  0
132280  1  0  0  0  0
132281  1  0  0  0  0
133154  1  0  0  0  0
133282  1  0  0  0  0
133283  1  0  0  0  0
136284  1  0  0  0  0
136285  1  0  0  0  0
136286  1  0  0  0  0
137287  1  0  0  0  0
137288  1  0  0  0  0
137289  1  0  0  0  0
138290  1  0  0  0  0
138291  1  0  0  0  0
138292  1  0  0  0  0
139293  1  0  0  0  0
139294  1  0  0  0  0
139295  1  0  0  0  0
140296  1  0  0  0  0
140297  1  0  0  0  0
140298  1  0  0  0  0
141151  1  0  0  0  0
141157  1  0  0  0  0
141299  1  0  0  0  0
143155  1  0  0  0  0
143300  1  0  0  0  0
143301  1  0  0  0  0
145164  1  0  0  0  0
145304  1  0  0  0  0
145305  1  0  0  0  0
146159  1  0  0  0  0
146308  1  0  0  0  0
147158  1  0  0  0  0
147309  1  0  0  0  0
147310  1  0  0  0  0
149166  1  0  0  0  0
149311  1  0  0  0  0
149312  1  0  0  0  0
150167  1  0  0  0  0
150313  1  0  0  0  0
150314  1  0  0  0  0
151160  1  0  0  0  0
151315  1  0  0  0  0
151316  1  0  0  0  0
152317  1  0  0  0  0
152318  1  0  0  0  0
153319  1  0  0  0  0
153320  1  0  0  0  0
154321  1  0  0  0  0
154322  1  0  0  0  0
155163  1  0  0  0  0
155323  1  0  0  0  0
155324  1  0  0  0  0
156326  1  0  0  0  0
156327  1  0  0  0  0
156328  1  0  0  0  0
158170  1  0  0  0  0
158329  1  0  0  0  0
158330  1  0  0  0  0
159331  1  0  0  0  0
159332  1  0  0  0  0
159333  1  0  0  0  0
160173  1  0  0  0  0
160334  1  0  0  0  0
160335  1  0  0  0  0
161168  1  0  0  0  0
161169  1  0  0  0  0
161336  1  0  0  0  0
162165  1  0  0  0  0
163338  1  0  0  0  0
163339  1  0  0  0  0
165171  1  0  0  0  0
165341  1  0  0  0  0
168172  1  0  0  0  0
168342  1  0  0  0  0
168343  1  0  0  0  0
171351  1  0  0  0  0
171352  1  0  0  0  0
172177  1  0  0  0  0
172354  1  0  0  0  0
172355  1  0  0  0  0
174176  1  0  0  0  0
175180  1  0  0  0  0
175181  1  0  0  0  0
175359  1  0  0  0  0
176179  1  0  0  0  0
176360  1  0  0  0  0
178182  1  0  0  0  0
178185  1  0  0  0  0
178365  1  0  0  0  0
179366  1  0  0  0  0
179367  1  0  0  0  0
181369  1  0  0  0  0
181370  1  0  0  0  0
181371  1  0  0  0  0
183186  1  0  0  0  0
183190  1  0  0  0  0
183374  1  0  0  0  0
184188  1  0  0  0  0
184195  1  0  0  0  0
184375  1  0  0  0  0
185192  1  0  0  0  0
185376  1  0  0  0  0
186193  1  0  0  0  0
186194  1  0  0  0  0
186377  1  0  0  0  0
187189  1  0  0  0  0
187191  1  0  0  0  0
187379  1  0  0  0  0
188196  1  0  0  0  0
188381  1  0  0  0  0
188382  1  0  0  0  0
191200  1  0  0  0  0
191384  1  0  0  0  0
191385  1  0  0  0  0
192387  1  0  0  0  0
192388  1  0  0  0  0
192389  1  0  0  0  0
193390  1  0  0  0  0
193391  1  0  0  0  0
193392  1  0  0  0  0
194393  1  0  0  0  0
194394  1  0  0  0  0
194395  1  0  0  0  0
196201  1  0  0  0  0
196397  1  0  0  0  0
196398  1  0  0  0  0
197198  1  0  0  0  0
198202  1  0  0  0  0
198400  1  0  0  0  0
199203  1  0  0  0  0
199206  1  0  0  0  0
199403  1  0  0  0  0
202404  1  0  0  0  0
202405  1  0  0  0  0
202406  1  0  0  0  0
203207  1  0  0  0  0
203408  1  0  0  0  0
203409  1  0  0  0  0
204205  1  0  0  0  0
205208  1  0  0  0  0
205410  1  0  0  0  0
208413  1  0  0  0  0
208414  1  0  0  0  0
208415  1  0  0  0  0
209210  1  0  0  0  0
209211  1  0  0  0  0
209417  1  0  0  0  0
211214  1  0  0  0  0
211419  1  0  0  0  0
211420  1  0  0  0  0
212213  1  0  0  0  0
213215  1  0  0  0  0
213424  1  0  0  0  0
215425  1  0  0  0  0
215426  1  0  0  0  0
216217  1  0  0  0  0
217430  1  0  0  0  0
217431  1  0  0  0  0
217432  1  0  0  0  0
M  END
> <PUBCHEM_COMPOUND_CID>
16130571

> <PUBCHEM_COMPOUND_CANONICALIZED>
1

> <PUBCHEM_CACTVS_COMPLEXITY>
7190

> <PUBCHEM_CACTVS_HBOND_ACCEPTOR>
59

> <PUBCHEM_CACTVS_HBOND_DONOR>
49

> <PUBCHEM_CACTVS_ROTATABLE_BOND>
111

> <PUBCHEM_CACTVS_SUBSKEYS>
AAADcfB//gAAAAAAAAAAAAAAAAAAAAAAAAAAAAAAAAAAAAAAAAAAHgAQCAAADTzhgAYCCALAAgAIAAGQGAAAAAAAAAAAAIGIAAACUB4AwCAUQAAGNgCQAAG/HwIOAAAAAAAAAAAAAAAAAAAAAAAAAAAAAA==

> <PUBCHEM_IUPAC_OPENEYE_NAME>
(4S)-4-[[(2S)-2-[[(2S)-2-[[(2S)-2-[[(2S)-2-[[(2S)-2-[[(2S)-2-[[(2S)-2-[[(2S)-2-[[(2S)-2-[[(2S)-2-[[(2S)-2-[[(2S)-2-[[(2S)-2-[[(2S,3R)-2-[[(2S,3R)-2-[[(2S,3S)-2-[[(2S)-2-[[(2S)-2-[[(2S)-2-[[(2S,3R)-2-[[(2S)-2-[[(2S)-2-[[(2S)-2-[[(2S)-2-[[(2S)-2-[[(2S)-2-acetamido-3-hydroxy-propanoyl]amino]-3-carboxy-propanoyl]amino]propanoyl]amino]propanoyl]amino]-3-methyl-butanoyl]amino]-3-carboxy-propanoyl]amino]-3-hydroxy-butanoyl]amino]-3-hydroxy-propanoyl]amino]-3-hydroxy-propanoyl]amino]-4-carboxy-butanoyl]amino]-3-methyl-pentanoyl]amino]-3-hydroxy-butanoyl]amino]-3-hydroxy-butanoyl]amino]-6-amino-hexanoyl]amino]-3-carboxy-propanoyl]amino]-4-methyl-pentanoyl]amino]-6-amino-hexanoyl]amino]-4-carboxy-butanoyl]amino]-6-amino-hexanoyl]amino]-6-amino-hexanoyl]amino]-4-carboxy-butanoyl]amino]-3-methyl-butanoyl]amino]-3-methyl-butanoyl]amino]-4-carboxy-butanoyl]amino]-4-carboxy-butanoyl]amino]propanoyl]amino]-5-[[(1S)-3-amino-1-carboxy-3-oxo-propyl]amino]-5-oxo-pentanoic acid

> <PUBCHEM_IUPAC_CAS_NAME>
(4S)-4-[[(2S)-2-[[(2S)-2-[[(2S)-2-[[(2S)-2-[[(2S)-2-[[(2S)-2-[[(2S)-2-[[(2S)-2-[[(2S)-2-[[(2S)-2-[[(2S)-2-[[(2S)-2-[[(2S)-2-[[(2S,3R)-2-[[(2S,3R)-2-[[(2S,3S)-2-[[(2S)-2-[[(2S)-2-[[(2S)-2-[[(2S,3R)-2-[[(2S)-2-[[(2S)-2-[[(2S)-2-[[(2S)-2-[[(2S)-2-[[(2S)-2-acetamido-3-hydroxy-1-oxopropyl]amino]-3-carboxy-1-oxopropyl]amino]-1-oxopropyl]amino]-1-oxopropyl]amino]-3-methyl-1-oxobutyl]amino]-3-carboxy-1-oxopropyl]amino]-3-hydroxy-1-oxobutyl]amino]-3-hydroxy-1-oxopropyl]amino]-3-hydroxy-1-oxopropyl]amino]-4-carboxy-1-oxobutyl]amino]-3-methyl-1-oxopentyl]amino]-3-hydroxy-1-oxobutyl]amino]-3-hydroxy-1-oxobutyl]amino]-6-amino-1-oxohexyl]amino]-3-carboxy-1-oxopropyl]amino]-4-methyl-1-oxopentyl]amino]-6-amino-1-oxohexyl]amino]-4-carboxy-1-oxobutyl]amino]-6-amino-1-oxohexyl]amino]-6-amino-1-oxohexyl]amino]-4-carboxy-1-oxobutyl]amino]-3-methyl-1-oxobutyl]amino]-3-methyl-1-oxobutyl]amino]-4-carboxy-1-oxobutyl]amino]-4-carboxy-1-oxobutyl]amino]-1-oxopropyl]amino]-5-[[(1S)-3-amino-1-carboxy-3-oxopropyl]amino]-5-oxopentanoic acid

> <PUBCHEM_IUPAC_NAME_MARKUP>
(4<I>S</I>)-4-[[(2<I>S</I>)-2-[[(2<I>S</I>)-2-[[(2<I>S</I>)-2-[[(2<I>S</I>)-2-[[(2<I>S</I>)-2-[[(2<I>S</I>)-2-[[(2<I>S</I>)-2-[[(2<I>S</I>)-2-[[(2<I>S</I>)-2-[[(2<I>S</I>)-2-[[(2<I>S</I>)-2-[[(2<I>S</I>)-2-[[(2<I>S</I>)-2-[[(2<I>S</I>,3<I>R</I>)-2-[[(2<I>S</I>,3<I>R</I>)-2-[[(2<I>S</I>,3<I>S</I>)-2-[[(2<I>S</I>)-2-[[(2<I>S</I>)-2-[[(2<I>S</I>)-2-[[(2<I>S</I>,3<I>R</I>)-2-[[(2<I>S</I>)-2-[[(2<I>S</I>)-2-[[(2<I>S</I>)-2-[[(2<I>S</I>)-2-[[(2<I>S</I>)-2-[[(2<I>S</I>)-2-acetamido-3-hydroxypropanoyl]amino]-3-carboxypropanoyl]amino]propanoyl]amino]propanoyl]amino]-3-methylbutanoyl]amino]-3-carboxypropanoyl]amino]-3-hydroxybutanoyl]amino]-3-hydroxypropanoyl]amino]-3-hydroxypropanoyl]amino]-4-carboxybutanoyl]amino]-3-methylpentanoyl]amino]-3-hydroxybutanoyl]amino]-3-hydroxybutanoyl]amino]-6-aminohexanoyl]amino]-3-carboxypropanoyl]amino]-4-methylpentanoyl]amino]-6-aminohexanoyl]amino]-4-carboxybutanoyl]amino]-6-aminohexanoyl]amino]-6-aminohexanoyl]amino]-4-carboxybutanoyl]amino]-3-methylbutanoyl]amino]-3-methylbutanoyl]amino]-4-carboxybutanoyl]amino]-4-carboxybutanoyl]amino]propanoyl]amino]-5-[[(1<I>S</I>)-3-amino-1-carboxy-3-oxopropyl]amino]-5-oxopentanoic acid

> <PUBCHEM_IUPAC_NAME>
(4S)-4-[[(2S)-2-[[(2S)-2-[[(2S)-2-[[(2S)-2-[[(2S)-2-[[(2S)-2-[[(2S)-2-[[(2S)-2-[[(2S)-2-[[(2S)-2-[[(2S)-2-[[(2S)-2-[[(2S)-2-[[(2S,3R)-2-[[(2S,3R)-2-[[(2S,3S)-2-[[(2S)-2-[[(2S)-2-[[(2S)-2-[[(2S,3R)-2-[[(2S)-2-[[(2S)-2-[[(2S)-2-[[(2S)-2-[[(2S)-2-[[(2S)-2-acetamido-3-hydroxypropanoyl]amino]-3-carboxypropanoyl]amino]propanoyl]amino]propanoyl]amino]-3-methylbutanoyl]amino]-3-carboxypropanoyl]amino]-3-hydroxybutanoyl]amino]-3-hydroxypropanoyl]amino]-3-hydroxypropanoyl]amino]-4-carboxybutanoyl]amino]-3-methylpentanoyl]amino]-3-hydroxybutanoyl]amino]-3-hydroxybutanoyl]amino]-6-aminohexanoyl]amino]-3-carboxypropanoyl]amino]-4-methylpentanoyl]amino]-6-aminohexanoyl]amino]-4-carboxybutanoyl]amino]-6-aminohexanoyl]amino]-6-aminohexanoyl]amino]-4-carboxybutanoyl]amino]-3-methylbutanoyl]amino]-3-methylbutanoyl]amino]-4-carboxybutanoyl]amino]-4-carboxybutanoyl]amino]propanoyl]amino]-5-[[(1S)-3-amino-1-carboxy-3-oxopropyl]amino]-5-oxopentanoic acid

> <PUBCHEM_IUPAC_SYSTEMATIC_NAME>
(4S)-4-[[(2S)-2-[[(2S)-2-[[(2S)-2-[[(2S)-2-[[(2S)-2-[[(2S)-2-[[(2S)-2-[[(2S)-2-[[(2S)-2-[[(2S)-2-[[(2S)-2-[[(2S)-2-[[(2S)-2-[[(2S,3R)-2-[[(2S,3R)-2-[[(2S,3S)-2-[[(2S)-2-[[(2S)-2-[[(2S)-2-[[(2S,3R)-2-[[(2S)-2-[[(2S)-2-[[(2S)-2-[[(2S)-2-[[(2S)-2-[[(2S)-2-acetamido-3-oxidanyl-propanoyl]amino]-4-oxidanyl-4-oxidanylidene-butanoyl]amino]propanoyl]amino]propanoyl]amino]-3-methyl-butanoyl]amino]-4-oxidanyl-4-oxidanylidene-butanoyl]amino]-3-oxidanyl-butanoyl]amino]-3-oxidanyl-propanoyl]amino]-3-oxidanyl-propanoyl]amino]-5-oxidanyl-5-oxidanylidene-pentanoyl]amino]-3-methyl-pentanoyl]amino]-3-oxidanyl-butanoyl]amino]-3-oxidanyl-butanoyl]amino]-6-azanyl-hexanoyl]amino]-4-oxidanyl-4-oxidanylidene-butanoyl]amino]-4-methyl-pentanoyl]amino]-6-azanyl-hexanoyl]amino]-5-oxidanyl-5-oxidanylidene-pentanoyl]amino]-6-azanyl-hexanoyl]amino]-6-azanyl-hexanoyl]amino]-5-oxidanyl-5-oxidanylidene-pentanoyl]amino]-3-methyl-butanoyl]amino]-3-methyl-butanoyl]amino]-5-oxidanyl-5-oxidanylidene-pentanoyl]amino]-5-oxidanyl-5-oxidanylidene-pentanoyl]amino]propanoyl]amino]-5-[[(2S)-4-azanyl-1-oxidanyl-1,4-bis(oxidanylidene)butan-2-yl]amino]-5-oxidanylidene-pentanoic acid

> <PUBCHEM_IUPAC_TRADITIONAL_NAME>
(4S)-4-[[(2S)-2-[[(2S)-2-[[(2S)-2-[[(2S)-2-[[(2S)-2-[[(2S)-2-[[(2S)-2-[[(2S)-2-[[(2S)-2-[[(2S)-2-[[(2S)-2-[[(2S)-2-[[(2S)-2-[[(2S,3R)-2-[[(2S,3R)-2-[[(2S,3S)-2-[[(2S)-2-[[(2S)-2-[[(2S)-2-[[(2S,3R)-2-[[(2S)-2-[[(2S)-2-[[(2S)-2-[[(2S)-2-[[(2S)-2-[[(2S)-2-acetamido-3-hydroxy-propanoyl]amino]-3-carboxy-propanoyl]amino]propanoyl]amino]propanoyl]amino]-3-methyl-butanoyl]amino]-3-carboxy-propanoyl]amino]-3-hydroxy-butanoyl]amino]-3-hydroxy-propanoyl]amino]-3-hydroxy-propanoyl]amino]-4-carboxy-butanoyl]amino]-3-methyl-pentanoyl]amino]-3-hydroxy-butanoyl]amino]-3-hydroxy-butanoyl]amino]-6-amino-hexanoyl]amino]-3-carboxy-propanoyl]amino]-4-methyl-pentanoyl]amino]-6-amino-hexanoyl]amino]-4-carboxy-butanoyl]amino]-6-amino-hexanoyl]amino]-6-amino-hexanoyl]amino]-4-carboxy-butanoyl]amino]-3-methyl-butanoyl]amino]-3-methyl-butanoyl]amino]-4-carboxy-butanoyl]amino]-4-carboxy-butanoyl]amino]propanoyl]amino]-5-[[(1S)-3-amino-1-carboxy-3-keto-propyl]amino]-5-keto-valeric acid

> <PUBCHEM_IUPAC_INCHI>
InChI=1S/C129H215N33O55/c1-18-59(10)98(159-114(201)76(36-42-91(181)182)146-120(207)83(53-164)154-121(208)84(54-165)155-127(214)99(63(14)166)160-118(205)80(51-94(187)188)152-123(210)95(56(4)5)156-104(191)62(13)135-102(189)60(11)137-115(202)78(49-92(183)184)151-119(206)82(52-163)138-66(17)169)125(212)161-101(65(16)168)128(215)162-100(64(15)167)126(213)147-70(30-22-26-46-133)109(196)150-79(50-93(185)186)117(204)149-77(47-55(2)3)116(203)142-69(29-21-25-45-132)108(195)144-73(33-39-88(175)176)110(197)141-67(27-19-23-43-130)106(193)140-68(28-20-24-44-131)107(194)145-75(35-41-90(179)180)113(200)157-97(58(8)9)124(211)158-96(57(6)7)122(209)148-74(34-40-89(177)178)111(198)143-71(31-37-86(171)172)105(192)136-61(12)103(190)139-72(32-38-87(173)174)112(199)153-81(129(216)217)48-85(134)170/h55-65,67-84,95-101,163-168H,18-54,130-133H2,1-17H3,(H2,134,170)(H,135,189)(H,136,192)(H,137,202)(H,138,169)(H,139,190)(H,140,193)(H,141,197)(H,142,203)(H,143,198)(H,144,195)(H,145,194)(H,146,207)(H,147,213)(H,148,209)(H,149,204)(H,150,196)(H,151,206)(H,152,210)(H,153,199)(H,154,208)(H,155,214)(H,156,191)(H,157,200)(H,158,211)(H,159,201)(H,160,205)(H,161,212)(H,162,215)(H,171,172)(H,173,174)(H,175,176)(H,177,178)(H,179,180)(H,181,182)(H,183,184)(H,185,186)(H,187,188)(H,216,217)/t59-,60-,61-,62-,63+,64+,65+,67-,68-,69-,70-,71-,72-,73-,74-,75-,76-,77-,78-,79-,80-,81-,82-,83-,84-,95-,96-,97-,98-,99-,100-,101-/m0/s1

> <PUBCHEM_IUPAC_INCHIKEY>
NZVYCXVTEHPMHE-ZSUJOUNUSA-N

> <PUBCHEM_XLOGP3_AA>
-24

> <PUBCHEM_EXACT_MASS>
3107.507483

> <PUBCHEM_MOLECULAR_FORMULA>
C129H215N33O55

> <PUBCHEM_MOLECULAR_WEIGHT>
3108.3

> <PUBCHEM_OPENEYE_CAN_SMILES>
CCC(C)C(C(=O)NC(C(C)O)C(=O)NC(C(C)O)C(=O)NC(CCCCN)C(=O)NC(CC(=O)O)C(=O)NC(CC(C)C)C(=O)NC(CCCCN)C(=O)NC(CCC(=O)O)C(=O)NC(CCCCN)C(=O)NC(CCCCN)C(=O)NC(CCC(=O)O)C(=O)NC(C(C)C)C(=O)NC(C(C)C)C(=O)NC(CCC(=O)O)C(=O)NC(CCC(=O)O)C(=O)NC(C)C(=O)NC(CCC(=O)O)C(=O)NC(CC(=O)N)C(=O)O)NC(=O)C(CCC(=O)O)NC(=O)C(CO)NC(=O)C(CO)NC(=O)C(C(C)O)NC(=O)C(CC(=O)O)NC(=O)C(C(C)C)NC(=O)C(C)NC(=O)C(C)NC(=O)C(CC(=O)O)NC(=O)C(CO)NC(=O)C

> <PUBCHEM_OPENEYE_ISO_SMILES>
CC[C@H](C)[C@@H](C(=O)N[C@@H]([C@@H](C)O)C(=O)N[C@@H]([C@@H](C)O)C(=O)N[C@@H](CCCCN)C(=O)N[C@@H](CC(=O)O)C(=O)N[C@@H](CC(C)C)C(=O)N[C@@H](CCCCN)C(=O)N[C@@H](CCC(=O)O)C(=O)N[C@@H](CCCCN)C(=O)N[C@@H](CCCCN)C(=O)N[C@@H](CCC(=O)O)C(=O)N[C@@H](C(C)C)C(=O)N[C@@H](C(C)C)C(=O)N[C@@H](CCC(=O)O)C(=O)N[C@@H](CCC(=O)O)C(=O)N[C@@H](C)C(=O)N[C@@H](CCC(=O)O)C(=O)N[C@@H](CC(=O)N)C(=O)O)NC(=O)[C@H](CCC(=O)O)NC(=O)[C@H](CO)NC(=O)[C@H](CO)NC(=O)[C@H]([C@@H](C)O)NC(=O)[C@H](CC(=O)O)NC(=O)[C@H](C(C)C)NC(=O)[C@H](C)NC(=O)[C@H](C)NC(=O)[C@H](CC(=O)O)NC(=O)[C@H](CO)NC(=O)C

> <PUBCHEM_CACTVS_TPSA>
1460

> <PUBCHEM_MONOISOTOPIC_WEIGHT>
3106.504128

> <PUBCHEM_TOTAL_CHARGE>
0

> <PUBCHEM_HEAVY_ATOM_COUNT>
217

> <PUBCHEM_ATOM_DEF_STEREO_COUNT>
32

> <PUBCHEM_ATOM_UDEF_STEREO_COUNT>
0

> <PUBCHEM_BOND_DEF_STEREO_COUNT>
0

> <PUBCHEM_BOND_UDEF_STEREO_COUNT>
0

> <PUBCHEM_ISOTOPIC_ATOM_COUNT>
0

> <PUBCHEM_COMPONENT_COUNT>
1

> <PUBCHEM_CACTVS_TAUTO_COUNT>
-1

> <PUBCHEM_COORDINATE_TYPE>
1
5
255

> <PUBCHEM_BONDANNOTATIONS>
146  13  5
185  36  5
91  56  6
93  57  5
94  58  6
98  59  5
90  60  5
95  61  5
99  62  5
92  63  6
104  64  6
111  65  6
141  66  6
127  67  5
122  68  6
123  69  5
128  70  6
161  71  5
165  75  5
175  77  6
176  78  6
184  79  5
178  80  5
187  81  6
183  82  5
199  83  6
198  84  6
205  85  5
209  87  6
213  88  5
89  117  5
130  9  6

$$$$
