16219411
  -OEChem-05242006132D

 68 70  0     1  0  0  0  0  0999 V2000
    6.6123    0.0000    0.0000 Na  0  4  0  0  0  0  0  0  0  0  0  0
    6.0319    7.5168    0.0000 O   0  0  0  0  0  0  0  0  0  0  0  0
    2.7950    6.7605    0.0000 O   0  0  0  0  0  0  0  0  0  0  0  0
    7.0465    8.1463    0.0000 O   0  0  0  0  0  0  0  0  0  0  0  0
    8.8722    7.3297    0.0000 O   0  0  0  0  0  0  0  0  0  0  0  0
    0.0000    3.2082    0.0000 O   0  0  0  0  0  0  0  0  0  0  0  0
    9.8879    5.9267    0.0000 O   0  0  0  0  0  0  0  0  0  0  0  0
   13.2308    7.2775    0.0000 O   0  0  0  0  0  0  0  0  0  0  0  0
   12.2151    8.6805    0.0000 O   0  0  0  0  0  0  0  0  0  0  0  0
    5.3931    6.2605    0.0000 C   0  0  1  0  0  0  0  0  0  0  0  0
    5.3931    5.2605    0.0000 C   0  0  2  0  0  0  0  0  0  0  0  0
    4.5271    4.7605    0.0000 C   0  0  1  0  0  0  0  0  0  0  0  0
    3.6610    5.2605    0.0000 C   0  0  1  0  0  0  0  0  0  0  0  0
    6.3393    6.5652    0.0000 C   0  0  1  0  0  0  0  0  0  0  0  0
    4.5271    6.7605    0.0000 C   0  0  0  0  0  0  0  0  0  0  0  0
    2.7510    4.7536    0.0000 C   0  0  2  0  0  0  0  0  0  0  0  0
    3.6610    6.2605    0.0000 C   0  0  2  0  0  0  0  0  0  0  0  0
    6.3393    4.9558    0.0000 C   0  0  0  0  0  0  0  0  0  0  0  0
    6.9229    5.7605    0.0000 C   0  0  0  0  0  0  0  0  0  0  0  0
    4.5431    3.7190    0.0000 C   0  0  0  0  0  0  0  0  0  0  0  0
    5.3931    7.2605    0.0000 C   0  0  0  0  0  0  0  0  0  0  0  0
    2.7430    3.7120    0.0000 C   0  0  0  0  0  0  0  0  0  0  0  0
    3.6451    3.1912    0.0000 C   0  0  0  0  0  0  0  0  0  0  0  0
    1.8242    5.3177    0.0000 C   0  0  0  0  0  0  0  0  0  0  0  0
    2.7587    5.7536    0.0000 C   0  0  0  0  0  0  0  0  0  0  0  0
    7.1493    7.1516    0.0000 C   0  0  0  0  0  0  0  0  0  0  0  0
    0.8763    4.7898    0.0000 C   0  0  0  0  0  0  0  0  0  0  0  0
    1.8076    3.1623    0.0000 C   0  0  0  0  0  0  0  0  0  0  0  0
    0.8679    3.7048    0.0000 C   0  0  0  0  0  0  0  0  0  0  0  0
    8.0622    6.7433    0.0000 C   0  0  0  0  0  0  0  0  0  0  0  0
    9.7850    6.9214    0.0000 C   0  0  0  0  0  0  0  0  0  0  0  0
   10.5951    7.5077    0.0000 C   0  0  0  0  0  0  0  0  0  0  0  0
   11.5079    7.0994    0.0000 C   0  0  0  0  0  0  0  0  0  0  0  0
   12.3180    7.6858    0.0000 C   0  0  0  0  0  0  0  0  0  0  0  0
    5.4830    4.4153    0.0000 H   0  0  0  0  0  0  0  0  0  0  0  0
    5.2664    4.3412    0.0000 H   0  0  0  0  0  0  0  0  0  0  0  0
    4.3972    5.6855    0.0000 H   0  0  0  0  0  0  0  0  0  0  0  0
    4.9256    7.2354    0.0000 H   0  0  0  0  0  0  0  0  0  0  0  0
    4.1285    7.2354    0.0000 H   0  0  0  0  0  0  0  0  0  0  0  0
    3.1241    5.9505    0.0000 H   0  0  0  0  0  0  0  0  0  0  0  0
    6.0883    4.3888    0.0000 H   0  0  0  0  0  0  0  0  0  0  0  0
    6.8767    4.6465    0.0000 H   0  0  0  0  0  0  0  0  0  0  0  0
    7.3838    5.3458    0.0000 H   0  0  0  0  0  0  0  0  0  0  0  0
    7.3838    6.1752    0.0000 H   0  0  0  0  0  0  0  0  0  0  0  0
    4.7612    3.1386    0.0000 H   0  0  0  0  0  0  0  0  0  0  0  0
    5.1523    3.8345    0.0000 H   0  0  0  0  0  0  0  0  0  0  0  0
    6.0131    7.2605    0.0000 H   0  0  0  0  0  0  0  0  0  0  0  0
    5.3931    7.8805    0.0000 H   0  0  0  0  0  0  0  0  0  0  0  0
    4.7731    7.2605    0.0000 H   0  0  0  0  0  0  0  0  0  0  0  0
    3.2478    2.7153    0.0000 H   0  0  0  0  0  0  0  0  0  0  0  0
    4.0460    2.7183    0.0000 H   0  0  0  0  0  0  0  0  0  0  0  0
    2.2324    5.7844    0.0000 H   0  0  0  0  0  0  0  0  0  0  0  0
    1.4343    5.7998    0.0000 H   0  0  0  0  0  0  0  0  0  0  0  0
    3.3787    5.7488    0.0000 H   0  0  0  0  0  0  0  0  0  0  0  0
    2.7635    6.3736    0.0000 H   0  0  0  0  0  0  0  0  0  0  0  0
    2.1388    5.7584    0.0000 H   0  0  0  0  0  0  0  0  0  0  0  0
    6.4476    7.9768    0.0000 H   0  0  0  0  0  0  0  0  0  0  0  0
    0.6718    5.3751    0.0000 H   0  0  0  0  0  0  0  0  0  0  0  0
    0.2647    4.6884    0.0000 H   0  0  0  0  0  0  0  0  0  0  0  0
    2.7950    7.3805    0.0000 H   0  0  0  0  0  0  0  0  0  0  0  0
    1.8100    2.5423    0.0000 H   0  0  0  0  0  0  0  0  0  0  0  0
    7.7146    6.2299    0.0000 H   0  0  0  0  0  0  0  0  0  0  0  0
    8.5074    6.3118    0.0000 H   0  0  0  0  0  0  0  0  0  0  0  0
   10.9427    8.0211    0.0000 H   0  0  0  0  0  0  0  0  0  0  0  0
   10.1498    7.9392    0.0000 H   0  0  0  0  0  0  0  0  0  0  0  0
   11.1603    6.5860    0.0000 H   0  0  0  0  0  0  0  0  0  0  0  0
   11.9532    6.6680    0.0000 H   0  0  0  0  0  0  0  0  0  0  0  0
   13.7330    7.6410    0.0000 H   0  0  0  0  0  0  0  0  0  0  0  0
 14  2  1  6  0  0  0
  2 57  1  0  0  0  0
 17  3  1  1  0  0  0
  3 60  1  0  0  0  0
  4 26  2  0  0  0  0
  5 30  1  0  0  0  0
  5 31  1  0  0  0  0
  6 29  2  0  0  0  0
  7 31  2  0  0  0  0
  8 34  1  0  0  0  0
  8 68  1  0  0  0  0
  9 34  2  0  0  0  0
 10 11  1  0  0  0  0
 10 14  1  0  0  0  0
 10 15  1  0  0  0  0
 10 21  1  1  0  0  0
 11 12  1  0  0  0  0
 11 18  1  0  0  0  0
 11 35  1  6  0  0  0
 12 13  1  0  0  0  0
 12 20  1  0  0  0  0
 12 36  1  1  0  0  0
 13 16  1  0  0  0  0
 13 17  1  0  0  0  0
 13 37  1  6  0  0  0
 14 19  1  0  0  0  0
 14 26  1  0  0  0  0
 15 17  1  0  0  0  0
 15 38  1  0  0  0  0
 15 39  1  0  0  0  0
 16 22  1  0  0  0  0
 16 24  1  0  0  0  0
 16 25  1  1  0  0  0
 17 40  1  0  0  0  0
 18 19  1  0  0  0  0
 18 41  1  0  0  0  0
 18 42  1  0  0  0  0
 19 43  1  0  0  0  0
 19 44  1  0  0  0  0
 20 23  1  0  0  0  0
 20 45  1  0  0  0  0
 20 46  1  0  0  0  0
 21 47  1  0  0  0  0
 21 48  1  0  0  0  0
 21 49  1  0  0  0  0
 22 23  1  0  0  0  0
 22 28  2  0  0  0  0
 23 50  1  0  0  0  0
 23 51  1  0  0  0  0
 24 27  1  0  0  0  0
 24 52  1  0  0  0  0
 24 53  1  0  0  0  0
 25 54  1  0  0  0  0
 25 55  1  0  0  0  0
 25 56  1  0  0  0  0
 26 30  1  0  0  0  0
 27 29  1  0  0  0  0
 27 58  1  0  0  0  0
 27 59  1  0  0  0  0
 28 29  1  0  0  0  0
 28 61  1  0  0  0  0
 30 62  1  0  0  0  0
 30 63  1  0  0  0  0
 31 32  1  0  0  0  0
 32 33  1  0  0  0  0
 32 64  1  0  0  0  0
 32 65  1  0  0  0  0
 33 34  1  0  0  0  0
 33 66  1  0  0  0  0
 33 67  1  0  0  0  0
M  RAD  1   1   2
M  END
> <PUBCHEM_COMPOUND_CID>
16219411

> <PUBCHEM_COMPOUND_CANONICALIZED>
1

> <PUBCHEM_CACTVS_COMPLEXITY>
908

> <PUBCHEM_CACTVS_HBOND_ACCEPTOR>
8

> <PUBCHEM_CACTVS_HBOND_DONOR>
3

> <PUBCHEM_CACTVS_ROTATABLE_BOND>
7

> <PUBCHEM_CACTVS_SUBSKEYS>
AAADcfB4PCAAAAAAAAAAAAAAAAAAAYAAAAAwYIAAAAAAAGDAAAAAGgAACAAAD1SggAICCAAABgCIAqDSCAIAAAAgAAAACAFAAEgAEBIAAQQCQAAFgAAIAQPLzPDPgAAAAAAAAADAAAYAADAAAYAADAAAAA==

> <PUBCHEM_IUPAC_OPENEYE_NAME>
4-[2-[(8S,9S,10R,11S,13S,14S,17R)-11,17-dihydroxy-10,13-dimethyl-3-oxo-2,6,7,8,9,11,12,14,15,16-decahydro-1H-cyclopenta[a]phenanthren-17-yl]-2-oxo-ethoxy]-4-oxo-butanoic acid;sodium

> <PUBCHEM_IUPAC_CAS_NAME>
4-[2-[(8S,9S,10R,11S,13S,14S,17R)-11,17-dihydroxy-10,13-dimethyl-3-oxo-2,6,7,8,9,11,12,14,15,16-decahydro-1H-cyclopenta[a]phenanthren-17-yl]-2-oxoethoxy]-4-oxobutanoic acid;sodium

> <PUBCHEM_IUPAC_NAME_MARKUP>
4-[2-[(8<I>S</I>,9<I>S</I>,10<I>R</I>,11<I>S</I>,13<I>S</I>,14<I>S</I>,17<I>R</I>)-11,17-dihydroxy-10,13-dimethyl-3-oxo-2,6,7,8,9,11,12,14,15,16-decahydro-1<I>H</I>-cyclopenta[a]phenanthren-17-yl]-2-oxoethoxy]-4-oxobutanoic acid;sodium

> <PUBCHEM_IUPAC_NAME>
4-[2-[(8S,9S,10R,11S,13S,14S,17R)-11,17-dihydroxy-10,13-dimethyl-3-oxo-2,6,7,8,9,11,12,14,15,16-decahydro-1H-cyclopenta[a]phenanthren-17-yl]-2-oxoethoxy]-4-oxobutanoic acid;sodium

> <PUBCHEM_IUPAC_SYSTEMATIC_NAME>
4-[2-[(8S,9S,10R,11S,13S,14S,17R)-10,13-dimethyl-11,17-bis(oxidanyl)-3-oxidanylidene-2,6,7,8,9,11,12,14,15,16-decahydro-1H-cyclopenta[a]phenanthren-17-yl]-2-oxidanylidene-ethoxy]-4-oxidanylidene-butanoic acid;sodium

> <PUBCHEM_IUPAC_TRADITIONAL_NAME>
4-[2-[(8S,9S,10R,11S,13S,14S,17R)-11,17-dihydroxy-3-keto-10,13-dimethyl-2,6,7,8,9,11,12,14,15,16-decahydro-1H-cyclopenta[a]phenanthren-17-yl]-2-keto-ethoxy]-4-keto-butyric acid;sodium

> <PUBCHEM_IUPAC_INCHI>
InChI=1S/C25H34O8.Na/c1-23-9-7-15(26)11-14(23)3-4-16-17-8-10-25(32,24(17,2)12-18(27)22(16)23)19(28)13-33-21(31)6-5-20(29)30;/h11,16-18,22,27,32H,3-10,12-13H2,1-2H3,(H,29,30);/t16-,17-,18-,22+,23-,24-,25-;/m0./s1

> <PUBCHEM_IUPAC_INCHIKEY>
LGKJVUKNTHOZJH-CODXZCKSSA-N

> <PUBCHEM_EXACT_MASS>
485.215137

> <PUBCHEM_MOLECULAR_FORMULA>
C25H34NaO8

> <PUBCHEM_MOLECULAR_WEIGHT>
485.5

> <PUBCHEM_OPENEYE_CAN_SMILES>
CC12CCC(=O)C=C1CCC3C2C(CC4(C3CCC4(C(=O)COC(=O)CCC(=O)O)O)C)O.[Na]

> <PUBCHEM_OPENEYE_ISO_SMILES>
C[C@]12CCC(=O)C=C1CC[C@@H]3[C@@H]2[C@H](C[C@]4([C@H]3CC[C@@]4(C(=O)COC(=O)CCC(=O)O)O)C)O.[Na]

> <PUBCHEM_CACTVS_TPSA>
138

> <PUBCHEM_MONOISOTOPIC_WEIGHT>
485.215137

> <PUBCHEM_TOTAL_CHARGE>
0

> <PUBCHEM_HEAVY_ATOM_COUNT>
34

> <PUBCHEM_ATOM_DEF_STEREO_COUNT>
7

> <PUBCHEM_ATOM_UDEF_STEREO_COUNT>
0

> <PUBCHEM_BOND_DEF_STEREO_COUNT>
0

> <PUBCHEM_BOND_UDEF_STEREO_COUNT>
0

> <PUBCHEM_ISOTOPIC_ATOM_COUNT>
0

> <PUBCHEM_COMPONENT_COUNT>
2

> <PUBCHEM_CACTVS_TAUTO_COUNT>
-1

> <PUBCHEM_COORDINATE_TYPE>
1
5
255

> <PUBCHEM_BONDANNOTATIONS>
10  21  5
11  35  6
12  36  5
13  37  6
16  25  5
14  2  6
17  3  5

$$$$
