172198
  -OEChem-05242006122D

146149  0     1  0  0  0  0  0999 V2000
   10.3965    3.9057    0.0000 O   0  0  0  0  0  0  0  0  0  0  0  0
   11.1202    6.7603    0.0000 O   0  0  0  0  0  0  0  0  0  0  0  0
    9.6534    3.2366    0.0000 O   0  0  0  0  0  0  0  0  0  0  0  0
    7.6561    5.7603    0.0000 O   0  0  0  0  0  0  0  0  0  0  0  0
    7.6319    0.2510    0.0000 O   0  0  0  0  0  0  0  0  0  0  0  0
    8.5221    4.2603    0.0000 O   0  0  0  0  0  0  0  0  0  0  0  0
    6.8887   -0.4181    0.0000 O   0  0  0  0  0  0  0  0  0  0  0  0
    3.7082   -2.1165    0.0000 O   0  0  0  0  0  0  0  0  0  0  0  0
    2.4608    3.7524    0.0000 O   0  0  0  0  0  0  0  0  0  0  0  0
    5.2830   -5.3599    0.0000 O   0  0  0  0  0  0  0  0  0  0  0  0
    3.2615   -8.3455    0.0000 O   0  0  0  0  0  0  0  0  0  0  0  0
    2.1025   -7.0583    0.0000 O   0  0  0  0  0  0  0  0  0  0  0  0
   12.0907    4.2658    0.0000 N   0  0  0  0  0  0  0  0  0  0  0  0
   10.8123    1.9494    0.0000 N   0  0  0  0  0  0  0  0  0  0  0  0
   10.2541    5.2603    0.0000 N   0  0  0  0  0  0  0  0  0  0  0  0
    8.1671    1.8983    0.0000 N   0  0  0  0  0  0  0  0  0  0  0  0
   12.0453    0.5882    0.0000 N   0  0  0  0  0  0  0  0  0  0  0  0
    5.7297    0.8691    0.0000 N   0  0  0  0  0  0  0  0  0  0  0  0
   13.5235   -0.0699    0.0000 N   0  0  0  0  0  0  0  0  0  0  0  0
    5.4024   -1.7564    0.0000 N   0  0  0  0  0  0  0  0  0  0  0  0
    4.1240   -4.0728    0.0000 N   0  0  0  0  0  0  0  0  0  0  0  0
    7.1851   -5.9780    0.0000 N   0  0  0  0  0  0  0  0  0  0  0  0
    2.6378   -5.4110    0.0000 N   0  0  0  0  0  0  0  0  0  0  0  0
    8.3441   -7.2651    0.0000 N   0  0  0  0  0  0  0  0  0  0  0  0
    8.8793   -5.6179    0.0000 N   0  0  0  0  0  0  0  0  0  0  0  0
   11.9862    5.2603    0.0000 C   0  0  1  0  0  0  0  0  0  0  0  0
   12.8997    5.6671    0.0000 C   0  0  0  0  0  0  0  0  0  0  0  0
   13.5689    4.9239    0.0000 C   0  0  0  0  0  0  0  0  0  0  0  0
   13.0689    4.0579    0.0000 C   0  0  0  0  0  0  0  0  0  0  0  0
   11.3476    3.5967    0.0000 C   0  0  0  0  0  0  0  0  0  0  0  0
   11.5555    2.6185    0.0000 C   0  0  2  0  0  0  0  0  0  0  0  0
   11.1202    5.7603    0.0000 C   0  0  0  0  0  0  0  0  0  0  0  0
   12.5065    2.3095    0.0000 C   0  0  0  0  0  0  0  0  0  0  0  0
    9.1181    1.5893    0.0000 C   0  0  1  0  0  0  0  0  0  0  0  0
    9.3261    0.6111    0.0000 C   0  0  2  0  0  0  0  0  0  0  0  0
    9.8613    2.2584    0.0000 C   0  0  0  0  0  0  0  0  0  0  0  0
    9.3881    5.7603    0.0000 C   0  0  1  0  0  0  0  0  0  0  0  0
   12.7145    1.3314    0.0000 C   0  0  0  0  0  0  0  0  0  0  0  0
    8.5829   -0.0580    0.0000 C   0  0  0  0  0  0  0  0  0  0  0  0
    9.3881    6.7603    0.0000 C   0  0  0  0  0  0  0  0  0  0  0  0
   10.2771    0.3021    0.0000 C   0  0  0  0  0  0  0  0  0  0  0  0
    6.4729    1.5382    0.0000 C   0  0  2  0  0  0  0  0  0  0  0  0
    7.4239    1.2292    0.0000 C   0  0  0  0  0  0  0  0  0  0  0  0
    8.5221    5.2603    0.0000 C   0  0  0  0  0  0  0  0  0  0  0  0
    8.7908   -1.0361    0.0000 C   0  0  0  0  0  0  0  0  0  0  0  0
   13.6280    0.9246    0.0000 C   0  0  0  0  0  0  0  0  0  0  0  0
    8.5221    7.2603    0.0000 C   0  0  0  0  0  0  0  0  0  0  0  0
    5.1945   -0.7782    0.0000 C   0  0  1  0  0  0  0  0  0  0  0  0
    6.2650    2.5163    0.0000 C   0  0  0  0  0  0  0  0  0  0  0  0
    4.2434   -0.4692    0.0000 C   0  0  0  0  0  0  0  0  0  0  0  0
    5.9376   -0.1091    0.0000 C   0  0  0  0  0  0  0  0  0  0  0  0
   12.5453   -0.2778    0.0000 C   0  0  0  0  0  0  0  0  0  0  0  0
    5.3139    2.8254    0.0000 C   0  0  0  0  0  0  0  0  0  0  0  0
    8.5221    8.2603    0.0000 C   0  0  0  0  0  0  0  0  0  0  0  0
    7.6561    6.7603    0.0000 C   0  0  0  0  0  0  0  0  0  0  0  0
    4.8672   -3.4036    0.0000 C   0  0  2  0  0  0  0  0  0  0  0  0
    3.5003   -1.1383    0.0000 C   0  0  0  0  0  0  0  0  0  0  0  0
    4.0355    0.5090    0.0000 C   0  0  0  0  0  0  0  0  0  0  0  0
    4.6593   -2.4255    0.0000 C   0  0  0  0  0  0  0  0  0  0  0  0
    5.8182   -3.7127    0.0000 C   0  0  0  0  0  0  0  0  0  0  0  0
    7.6561    8.7603    0.0000 C   0  0  0  0  0  0  0  0  0  0  0  0
    6.7900    7.2603    0.0000 C   0  0  0  0  0  0  0  0  0  0  0  0
    4.5708    2.1562    0.0000 C   0  0  0  0  0  0  0  0  0  0  0  0
    5.1060    3.8035    0.0000 C   0  0  0  0  0  0  0  0  0  0  0  0
    6.0262   -4.6908    0.0000 C   0  0  0  0  0  0  0  0  0  0  0  0
    6.7900    8.2603    0.0000 C   0  0  0  0  0  0  0  0  0  0  0  0
    3.6197    2.4652    0.0000 C   0  0  0  0  0  0  0  0  0  0  0  0
    4.1550    4.1125    0.0000 C   0  0  0  0  0  0  0  0  0  0  0  0
    6.9772   -4.9998    0.0000 C   0  0  0  0  0  0  0  0  0  0  0  0
    4.3320   -5.0509    0.0000 C   0  0  0  0  0  0  0  0  0  0  0  0
    3.4118    3.4434    0.0000 C   0  0  0  0  0  0  0  0  0  0  0  0
    3.5888   -5.7200    0.0000 C   0  0  2  0  0  0  0  0  0  0  0  0
    3.7967   -6.6982    0.0000 C   0  0  0  0  0  0  0  0  0  0  0  0
    3.0536   -7.3673    0.0000 C   0  0  0  0  0  0  0  0  0  0  0  0
    8.1362   -6.2870    0.0000 C   0  0  0  0  0  0  0  0  0  0  0  0
   11.4662    4.9227    0.0000 H   0  0  0  0  0  0  0  0  0  0  0  0
   13.4013    6.0315    0.0000 H   0  0  0  0  0  0  0  0  0  0  0  0
   12.5897    6.2040    0.0000 H   0  0  0  0  0  0  0  0  0  0  0  0
   14.0705    4.5595    0.0000 H   0  0  0  0  0  0  0  0  0  0  0  0
   13.9837    5.3847    0.0000 H   0  0  0  0  0  0  0  0  0  0  0  0
   12.8773    3.4682    0.0000 H   0  0  0  0  0  0  0  0  0  0  0  0
   13.6353    3.8057    0.0000 H   0  0  0  0  0  0  0  0  0  0  0  0
   10.9658    2.8101    0.0000 H   0  0  0  0  0  0  0  0  0  0  0  0
   13.1262    2.3312    0.0000 H   0  0  0  0  0  0  0  0  0  0  0  0
   12.5928    2.9235    0.0000 H   0  0  0  0  0  0  0  0  0  0  0  0
   10.9413    1.3430    0.0000 H   0  0  0  0  0  0  0  0  0  0  0  0
    8.6574    1.1744    0.0000 H   0  0  0  0  0  0  0  0  0  0  0  0
   10.2541    4.6403    0.0000 H   0  0  0  0  0  0  0  0  0  0  0  0
    9.7868    1.0260    0.0000 H   0  0  0  0  0  0  0  0  0  0  0  0
    9.9251    6.0703    0.0000 H   0  0  0  0  0  0  0  0  0  0  0  0
    8.2544    0.4678    0.0000 H   0  0  0  0  0  0  0  0  0  0  0  0
    8.0081   -0.2902    0.0000 H   0  0  0  0  0  0  0  0  0  0  0  0
    8.0382    2.5048    0.0000 H   0  0  0  0  0  0  0  0  0  0  0  0
    9.9987    6.6527    0.0000 H   0  0  0  0  0  0  0  0  0  0  0  0
    9.6002    7.3430    0.0000 H   0  0  0  0  0  0  0  0  0  0  0  0
   10.0855   -0.2875    0.0000 H   0  0  0  0  0  0  0  0  0  0  0  0
   10.8668    0.1105    0.0000 H   0  0  0  0  0  0  0  0  0  0  0  0
   10.4687    0.8918    0.0000 H   0  0  0  0  0  0  0  0  0  0  0  0
    6.6018    0.9317    0.0000 H   0  0  0  0  0  0  0  0  0  0  0  0
   11.4287    0.6530    0.0000 H   0  0  0  0  0  0  0  0  0  0  0  0
    8.1844   -1.1650    0.0000 H   0  0  0  0  0  0  0  0  0  0  0  0
    8.9197   -1.6426    0.0000 H   0  0  0  0  0  0  0  0  0  0  0  0
    9.3973   -0.9072    0.0000 H   0  0  0  0  0  0  0  0  0  0  0  0
   14.1649    1.2346    0.0000 H   0  0  0  0  0  0  0  0  0  0  0  0
    5.7842   -0.9698    0.0000 H   0  0  0  0  0  0  0  0  0  0  0  0
    6.8846    2.5380    0.0000 H   0  0  0  0  0  0  0  0  0  0  0  0
    6.3513    3.1303    0.0000 H   0  0  0  0  0  0  0  0  0  0  0  0
    5.1401    1.0607    0.0000 H   0  0  0  0  0  0  0  0  0  0  0  0
    3.6538   -0.2776    0.0000 H   0  0  0  0  0  0  0  0  0  0  0  0
   12.2932   -0.8442    0.0000 H   0  0  0  0  0  0  0  0  0  0  0  0
    5.9921   -1.9480    0.0000 H   0  0  0  0  0  0  0  0  0  0  0  0
    9.0590    8.5703    0.0000 H   0  0  0  0  0  0  0  0  0  0  0  0
    7.6561    6.1403    0.0000 H   0  0  0  0  0  0  0  0  0  0  0  0
    4.9961   -4.0101    0.0000 H   0  0  0  0  0  0  0  0  0  0  0  0
    3.0854   -0.6776    0.0000 H   0  0  0  0  0  0  0  0  0  0  0  0
    3.0396   -1.5532    0.0000 H   0  0  0  0  0  0  0  0  0  0  0  0
    3.9152   -1.5991    0.0000 H   0  0  0  0  0  0  0  0  0  0  0  0
    4.6420    0.6379    0.0000 H   0  0  0  0  0  0  0  0  0  0  0  0
    3.9066    1.1154    0.0000 H   0  0  0  0  0  0  0  0  0  0  0  0
    3.4291    0.3800    0.0000 H   0  0  0  0  0  0  0  0  0  0  0  0
    7.1191    5.4503    0.0000 H   0  0  0  0  0  0  0  0  0  0  0  0
    6.4379   -3.6910    0.0000 H   0  0  0  0  0  0  0  0  0  0  0  0
    5.9045   -3.0987    0.0000 H   0  0  0  0  0  0  0  0  0  0  0  0
    4.6997    1.5498    0.0000 H   0  0  0  0  0  0  0  0  0  0  0  0
    5.5668    4.2184    0.0000 H   0  0  0  0  0  0  0  0  0  0  0  0
    7.6561    9.3803    0.0000 H   0  0  0  0  0  0  0  0  0  0  0  0
    6.2531    6.9503    0.0000 H   0  0  0  0  0  0  0  0  0  0  0  0
    5.4065   -4.7124    0.0000 H   0  0  0  0  0  0  0  0  0  0  0  0
    5.9399   -5.3048    0.0000 H   0  0  0  0  0  0  0  0  0  0  0  0
    3.5344   -3.8812    0.0000 H   0  0  0  0  0  0  0  0  0  0  0  0
    6.2531    8.5703    0.0000 H   0  0  0  0  0  0  0  0  0  0  0  0
    3.1590    2.0504    0.0000 H   0  0  0  0  0  0  0  0  0  0  0  0
    4.0260    4.7190    0.0000 H   0  0  0  0  0  0  0  0  0  0  0  0
    7.5968   -4.9782    0.0000 H   0  0  0  0  0  0  0  0  0  0  0  0
    7.0635   -4.3859    0.0000 H   0  0  0  0  0  0  0  0  0  0  0  0
    3.1281   -6.1349    0.0000 H   0  0  0  0  0  0  0  0  0  0  0  0
    4.1253   -7.2240    0.0000 H   0  0  0  0  0  0  0  0  0  0  0  0
    4.3716   -6.4659    0.0000 H   0  0  0  0  0  0  0  0  0  0  0  0
    2.1770   -5.8259    0.0000 H   0  0  0  0  0  0  0  0  0  0  0  0
    2.5088   -4.8046    0.0000 H   0  0  0  0  0  0  0  0  0  0  0  0
    2.0000    3.3376    0.0000 H   0  0  0  0  0  0  0  0  0  0  0  0
    8.9338   -7.4567    0.0000 H   0  0  0  0  0  0  0  0  0  0  0  0
    7.8833   -7.6800    0.0000 H   0  0  0  0  0  0  0  0  0  0  0  0
    9.4690   -5.8094    0.0000 H   0  0  0  0  0  0  0  0  0  0  0  0
    8.7504   -5.0114    0.0000 H   0  0  0  0  0  0  0  0  0  0  0  0
    2.8007   -8.7603    0.0000 H   0  0  0  0  0  0  0  0  0  0  0  0
  1 30  2  0  0  0  0
  2 32  2  0  0  0  0
  3 36  2  0  0  0  0
  4 44  1  0  0  0  0
  4121  1  0  0  0  0
  5 43  2  0  0  0  0
  6 44  2  0  0  0  0
  7 51  2  0  0  0  0
  8 59  2  0  0  0  0
  9 71  1  0  0  0  0
  9141  1  0  0  0  0
 10 70  2  0  0  0  0
 11 74  1  0  0  0  0
 11146  1  0  0  0  0
 12 74  2  0  0  0  0
 13 26  1  0  0  0  0
 13 29  1  0  0  0  0
 13 30  1  0  0  0  0
 31 14  1  6  0  0  0
 14 36  1  0  0  0  0
 14 86  1  0  0  0  0
 15 32  1  0  0  0  0
 37 15  1  6  0  0  0
 15 88  1  0  0  0  0
 34 16  1  6  0  0  0
 16 43  1  0  0  0  0
 16 93  1  0  0  0  0
 17 38  1  0  0  0  0
 17 52  1  0  0  0  0
 17100  1  0  0  0  0
 42 18  1  1  0  0  0
 18 51  1  0  0  0  0
 18108  1  0  0  0  0
 19 46  1  0  0  0  0
 19 52  2  0  0  0  0
 48 20  1  1  0  0  0
 20 59  1  0  0  0  0
 20111  1  0  0  0  0
 56 21  1  6  0  0  0
 21 70  1  0  0  0  0
 21130  1  0  0  0  0
 22 69  1  0  0  0  0
 22 75  2  0  0  0  0
 72 23  1  6  0  0  0
 23139  1  0  0  0  0
 23140  1  0  0  0  0
 24 75  1  0  0  0  0
 24142  1  0  0  0  0
 24143  1  0  0  0  0
 25 75  1  0  0  0  0
 25144  1  0  0  0  0
 25145  1  0  0  0  0
 26 27  1  0  0  0  0
 26 32  1  6  0  0  0
 26 76  1  0  0  0  0
 27 28  1  0  0  0  0
 27 77  1  0  0  0  0
 27 78  1  0  0  0  0
 28 29  1  0  0  0  0
 28 79  1  0  0  0  0
 28 80  1  0  0  0  0
 29 81  1  0  0  0  0
 29 82  1  0  0  0  0
 30 31  1  0  0  0  0
 31 33  1  0  0  0  0
 31 83  1  0  0  0  0
 33 38  1  0  0  0  0
 33 84  1  0  0  0  0
 33 85  1  0  0  0  0
 34 35  1  0  0  0  0
 34 36  1  0  0  0  0
 34 87  1  0  0  0  0
 35 39  1  0  0  0  0
 35 41  1  1  0  0  0
 35 89  1  0  0  0  0
 37 40  1  0  0  0  0
 37 44  1  0  0  0  0
 37 90  1  0  0  0  0
 38 46  2  0  0  0  0
 39 45  1  0  0  0  0
 39 91  1  0  0  0  0
 39 92  1  0  0  0  0
 40 47  1  0  0  0  0
 40 94  1  0  0  0  0
 40 95  1  0  0  0  0
 41 96  1  0  0  0  0
 41 97  1  0  0  0  0
 41 98  1  0  0  0  0
 42 43  1  0  0  0  0
 42 49  1  0  0  0  0
 42 99  1  0  0  0  0
 45101  1  0  0  0  0
 45102  1  0  0  0  0
 45103  1  0  0  0  0
 46104  1  0  0  0  0
 47 54  2  0  0  0  0
 47 55  1  0  0  0  0
 48 50  1  0  0  0  0
 48 51  1  0  0  0  0
 48105  1  0  0  0  0
 49 53  1  0  0  0  0
 49106  1  0  0  0  0
 49107  1  0  0  0  0
 50 57  1  0  0  0  0
 50 58  1  0  0  0  0
 50109  1  0  0  0  0
 52110  1  0  0  0  0
 53 63  2  0  0  0  0
 53 64  1  0  0  0  0
 54 61  1  0  0  0  0
 54112  1  0  0  0  0
 55 62  2  0  0  0  0
 55113  1  0  0  0  0
 56 59  1  0  0  0  0
 56 60  1  0  0  0  0
 56114  1  0  0  0  0
 57115  1  0  0  0  0
 57116  1  0  0  0  0
 57117  1  0  0  0  0
 58118  1  0  0  0  0
 58119  1  0  0  0  0
 58120  1  0  0  0  0
 60 65  1  0  0  0  0
 60122  1  0  0  0  0
 60123  1  0  0  0  0
 61 66  2  0  0  0  0
 61126  1  0  0  0  0
 62 66  1  0  0  0  0
 62127  1  0  0  0  0
 63 67  1  0  0  0  0
 63124  1  0  0  0  0
 64 68  2  0  0  0  0
 64125  1  0  0  0  0
 65 69  1  0  0  0  0
 65128  1  0  0  0  0
 65129  1  0  0  0  0
 66131  1  0  0  0  0
 67 71  2  0  0  0  0
 67132  1  0  0  0  0
 68 71  1  0  0  0  0
 68133  1  0  0  0  0
 69134  1  0  0  0  0
 69135  1  0  0  0  0
 70 72  1  0  0  0  0
 72 73  1  0  0  0  0
 72136  1  0  0  0  0
 73 74  1  0  0  0  0
 73137  1  0  0  0  0
 73138  1  0  0  0  0
M  END
> <PUBCHEM_COMPOUND_CID>
172198

> <PUBCHEM_COMPOUND_CANONICALIZED>
1

> <PUBCHEM_CACTVS_COMPLEXITY>
1980

> <PUBCHEM_CACTVS_HBOND_ACCEPTOR>
15

> <PUBCHEM_CACTVS_HBOND_DONOR>
13

> <PUBCHEM_CACTVS_ROTATABLE_BOND>
29

> <PUBCHEM_CACTVS_SUBSKEYS>
AAADcfB//AAAAAAAAAAAAAAAAAAAAWLAAAAwYAAAAAAAAAAB0AAAHgAQCAAADSzBngQ/npfJkgCoAzX3fAACgC2xMqAJ2YG+eIiKbjrC2TOUcAAu1hPY2Ce/yaCOIAAAAAAAAABAAAAAAAAAAAAAAAAAAA==

> <PUBCHEM_IUPAC_OPENEYE_NAME>
(3S)-3-amino-4-[[(1S)-1-[[(1S)-1-[[(1S)-2-[[(1S,2S)-1-[[(1S)-2-[(2S)-2-[[(1S)-1-carboxy-2-phenyl-ethyl]carbamoyl]pyrrolidin-1-yl]-1-(1H-imidazol-5-ylmethyl)-2-oxo-ethyl]carbamoyl]-2-methyl-butyl]amino]-1-[(4-hydroxyphenyl)methyl]-2-oxo-ethyl]carbamoyl]-2-methyl-propyl]carbamoyl]-4-guanidino-butyl]amino]-4-oxo-butanoic acid

> <PUBCHEM_IUPAC_CAS_NAME>
(3S)-3-amino-4-[[(2S)-1-[[(2S)-1-[[(2S)-1-[[(2S,3S)-1-[[(2S)-1-[(2S)-2-[[[(1S)-1-carboxy-2-phenylethyl]amino]-oxomethyl]-1-pyrrolidinyl]-3-(1H-imidazol-5-yl)-1-oxopropan-2-yl]amino]-3-methyl-1-oxopentan-2-yl]amino]-3-(4-hydroxyphenyl)-1-oxopropan-2-yl]amino]-3-methyl-1-oxobutan-2-yl]amino]-5-(diaminomethylideneamino)-1-oxopentan-2-yl]amino]-4-oxobutanoic acid

> <PUBCHEM_IUPAC_NAME_MARKUP>
(3<I>S</I>)-3-amino-4-[[(2<I>S</I>)-1-[[(2<I>S</I>)-1-[[(2<I>S</I>)-1-[[(2<I>S</I>,3<I>S</I>)-1-[[(2<I>S</I>)-1-[(2<I>S</I>)-2-[[(1<I>S</I>)-1-carboxy-2-phenylethyl]carbamoyl]pyrrolidin-1-yl]-3-(1<I>H</I>-imidazol-5-yl)-1-oxopropan-2-yl]amino]-3-methyl-1-oxopentan-2-yl]amino]-3-(4-hydroxyphenyl)-1-oxopropan-2-yl]amino]-3-methyl-1-oxobutan-2-yl]amino]-5-(diaminomethylideneamino)-1-oxopentan-2-yl]amino]-4-oxobutanoic acid

> <PUBCHEM_IUPAC_NAME>
(3S)-3-amino-4-[[(2S)-1-[[(2S)-1-[[(2S)-1-[[(2S,3S)-1-[[(2S)-1-[(2S)-2-[[(1S)-1-carboxy-2-phenylethyl]carbamoyl]pyrrolidin-1-yl]-3-(1H-imidazol-5-yl)-1-oxopropan-2-yl]amino]-3-methyl-1-oxopentan-2-yl]amino]-3-(4-hydroxyphenyl)-1-oxopropan-2-yl]amino]-3-methyl-1-oxobutan-2-yl]amino]-5-(diaminomethylideneamino)-1-oxopentan-2-yl]amino]-4-oxobutanoic acid

> <PUBCHEM_IUPAC_SYSTEMATIC_NAME>
(3S)-3-azanyl-4-[[(2S)-5-[bis(azanyl)methylideneamino]-1-[[(2S)-1-[[(2S)-3-(4-hydroxyphenyl)-1-[[(2S,3S)-1-[[(2S)-3-(1H-imidazol-5-yl)-1-oxidanylidene-1-[(2S)-2-[[(2S)-1-oxidanyl-1-oxidanylidene-3-phenyl-propan-2-yl]carbamoyl]pyrrolidin-1-yl]propan-2-yl]amino]-3-methyl-1-oxidanylidene-pentan-2-yl]amino]-1-oxidanylidene-propan-2-yl]amino]-3-methyl-1-oxidanylidene-butan-2-yl]amino]-1-oxidanylidene-pentan-2-yl]amino]-4-oxidanylidene-butanoic acid

> <PUBCHEM_IUPAC_TRADITIONAL_NAME>
(3S)-3-amino-4-[[(1S)-1-[[(1S)-1-[[(1S)-2-[[(1S,2S)-1-[[(1S)-2-[(2S)-2-[[(1S)-1-carboxy-2-phenyl-ethyl]carbamoyl]pyrrolidino]-1-(1H-imidazol-5-ylmethyl)-2-keto-ethyl]carbamoyl]-2-methyl-butyl]amino]-1-(4-hydroxybenzyl)-2-keto-ethyl]carbamoyl]-2-methyl-propyl]carbamoyl]-4-guanidino-butyl]amino]-4-keto-butyric acid

> <PUBCHEM_IUPAC_INCHI>
InChI=1S/C50H71N13O12/c1-5-28(4)41(47(72)59-36(23-31-25-54-26-56-31)48(73)63-20-10-14-38(63)45(70)60-37(49(74)75)22-29-11-7-6-8-12-29)62-44(69)35(21-30-15-17-32(64)18-16-30)58-46(71)40(27(2)3)61-43(68)34(13-9-19-55-50(52)53)57-42(67)33(51)24-39(65)66/h6-8,11-12,15-18,25-28,33-38,40-41,64H,5,9-10,13-14,19-24,51H2,1-4H3,(H,54,56)(H,57,67)(H,58,71)(H,59,72)(H,60,70)(H,61,68)(H,62,69)(H,65,66)(H,74,75)(H4,52,53,55)/t28-,33-,34-,35-,36-,37-,38-,40-,41-/m0/s1

> <PUBCHEM_IUPAC_INCHIKEY>
CZGUSIXMZVURDU-JZXHSEFVSA-N

> <PUBCHEM_XLOGP3_AA>
-1.7

> <PUBCHEM_EXACT_MASS>
1045.534515

> <PUBCHEM_MOLECULAR_FORMULA>
C50H71N13O12

> <PUBCHEM_MOLECULAR_WEIGHT>
1046.2

> <PUBCHEM_OPENEYE_CAN_SMILES>
CCC(C)C(C(=O)NC(CC1=CN=CN1)C(=O)N2CCCC2C(=O)NC(CC3=CC=CC=C3)C(=O)O)NC(=O)C(CC4=CC=C(C=C4)O)NC(=O)C(C(C)C)NC(=O)C(CCCN=C(N)N)NC(=O)C(CC(=O)O)N

> <PUBCHEM_OPENEYE_ISO_SMILES>
CC[C@H](C)[C@@H](C(=O)N[C@@H](CC1=CN=CN1)C(=O)N2CCC[C@H]2C(=O)N[C@@H](CC3=CC=CC=C3)C(=O)O)NC(=O)[C@H](CC4=CC=C(C=C4)O)NC(=O)[C@H](C(C)C)NC(=O)[C@H](CCCN=C(N)N)NC(=O)[C@H](CC(=O)O)N

> <PUBCHEM_CACTVS_TPSA>
409

> <PUBCHEM_MONOISOTOPIC_WEIGHT>
1045.534515

> <PUBCHEM_TOTAL_CHARGE>
0

> <PUBCHEM_HEAVY_ATOM_COUNT>
75

> <PUBCHEM_ATOM_DEF_STEREO_COUNT>
9

> <PUBCHEM_ATOM_UDEF_STEREO_COUNT>
0

> <PUBCHEM_BOND_DEF_STEREO_COUNT>
0

> <PUBCHEM_BOND_UDEF_STEREO_COUNT>
0

> <PUBCHEM_ISOTOPIC_ATOM_COUNT>
0

> <PUBCHEM_COMPONENT_COUNT>
1

> <PUBCHEM_CACTVS_TAUTO_COUNT>
-1

> <PUBCHEM_COORDINATE_TYPE>
1
5
255

> <PUBCHEM_BONDANNOTATIONS>
31  14  6
37  15  6
34  16  6
17  38  8
17  52  8
42  18  5
19  46  8
19  52  8
48  20  5
56  21  6
72  23  6
26  32  6
35  41  5
38  46  8
47  54  8
47  55  8
53  63  8
53  64  8
54  61  8
55  62  8
61  66  8
62  66  8
63  67  8
64  68  8
67  71  8
68  71  8

$$$$
