24821094
  -OEChem-05242006132D

 57 61  0     1  0  0  0  0  0999 V2000
    7.9244   -3.2213    0.0000 O   0  0  0  0  0  0  0  0  0  0  0  0
    5.9209    3.7594    0.0000 O   0  0  0  0  0  0  0  0  0  0  0  0
    6.2781   -3.7594    0.0000 N   0  0  0  0  0  0  0  0  0  0  0  0
    4.6783   -1.6521    0.0000 N   0  0  0  0  0  0  0  0  0  0  0  0
    5.2619   -0.8474    0.0000 N   0  0  0  0  0  0  0  0  0  0  0  0
    2.8660   -1.8474    0.0000 N   0  0  0  0  0  0  0  0  0  0  0  0
    2.0000   -0.3474    0.0000 N   0  0  0  0  0  0  0  0  0  0  0  0
    2.8660    1.1526    0.0000 N   0  0  0  0  0  0  0  0  0  0  0  0
    4.9889   -2.6027    0.0000 C   0  0  2  0  0  0  0  0  0  0  0  0
    4.3211   -3.3470    0.0000 C   0  0  0  0  0  0  0  0  0  0  0  0
    5.9674   -2.8089    0.0000 C   0  0  0  0  0  0  0  0  0  0  0  0
    4.6318   -4.2975    0.0000 C   0  0  0  0  0  0  0  0  0  0  0  0
    5.6103   -4.5037    0.0000 C   0  0  0  0  0  0  0  0  0  0  0  0
    3.7320   -1.3474    0.0000 C   0  0  0  0  0  0  0  0  0  0  0  0
    3.7320   -0.3474    0.0000 C   0  0  0  0  0  0  0  0  0  0  0  0
    7.2566   -3.9656    0.0000 C   0  0  0  0  0  0  0  0  0  0  0  0
    4.6783   -0.0427    0.0000 C   0  0  0  0  0  0  0  0  0  0  0  0
    2.8660    0.1526    0.0000 C   0  0  0  0  0  0  0  0  0  0  0  0
    4.9889    0.9078    0.0000 C   0  0  0  0  0  0  0  0  0  0  0  0
    7.5673   -4.9161    0.0000 C   0  0  0  0  0  0  0  0  0  0  0  0
    2.0000   -1.3474    0.0000 C   0  0  0  0  0  0  0  0  0  0  0  0
    4.3211    1.6521    0.0000 C   0  0  0  0  0  0  0  0  0  0  0  0
    5.9674    1.1141    0.0000 C   0  0  0  0  0  0  0  0  0  0  0  0
    8.5458   -5.1224    0.0000 C   0  0  0  0  0  0  0  0  0  0  0  0
    4.6318    2.6027    0.0000 C   0  0  0  0  0  0  0  0  0  0  0  0
    6.2781    2.0646    0.0000 C   0  0  0  0  0  0  0  0  0  0  0  0
    5.6103    2.8089    0.0000 C   0  0  0  0  0  0  0  0  0  0  0  0
    6.8994    3.9656    0.0000 C   0  0  0  0  0  0  0  0  0  0  0  0
    7.5673    3.2213    0.0000 C   0  0  0  0  0  0  0  0  0  0  0  0
    7.2101    4.9161    0.0000 C   0  0  0  0  0  0  0  0  0  0  0  0
    8.5458    3.4275    0.0000 C   0  0  0  0  0  0  0  0  0  0  0  0
    8.1886    5.1224    0.0000 C   0  0  0  0  0  0  0  0  0  0  0  0
    8.8564    4.3781    0.0000 C   0  0  0  0  0  0  0  0  0  0  0  0
    5.4030   -2.1412    0.0000 H   0  0  0  0  0  0  0  0  0  0  0  0
    3.9385   -2.8591    0.0000 H   0  0  0  0  0  0  0  0  0  0  0  0
    3.7742   -3.6390    0.0000 H   0  0  0  0  0  0  0  0  0  0  0  0
    6.5812   -2.7215    0.0000 H   0  0  0  0  0  0  0  0  0  0  0  0
    5.9880   -2.1892    0.0000 H   0  0  0  0  0  0  0  0  0  0  0  0
    4.0179   -4.3848    0.0000 H   0  0  0  0  0  0  0  0  0  0  0  0
    4.6112   -4.9171    0.0000 H   0  0  0  0  0  0  0  0  0  0  0  0
    5.3790   -5.0790    0.0000 H   0  0  0  0  0  0  0  0  0  0  0  0
    6.1366   -4.8313    0.0000 H   0  0  0  0  0  0  0  0  0  0  0  0
    7.1532   -5.3776    0.0000 H   0  0  0  0  0  0  0  0  0  0  0  0
    1.4631   -1.6574    0.0000 H   0  0  0  0  0  0  0  0  0  0  0  0
    3.7144    1.5243    0.0000 H   0  0  0  0  0  0  0  0  0  0  0  0
    6.3815    0.6526    0.0000 H   0  0  0  0  0  0  0  0  0  0  0  0
    2.3291    1.4626    0.0000 H   0  0  0  0  0  0  0  0  0  0  0  0
    3.4030    1.4626    0.0000 H   0  0  0  0  0  0  0  0  0  0  0  0
    8.7384   -5.7117    0.0000 H   0  0  0  0  0  0  0  0  0  0  0  0
    8.9598   -4.6609    0.0000 H   0  0  0  0  0  0  0  0  0  0  0  0
    4.2177    3.0641    0.0000 H   0  0  0  0  0  0  0  0  0  0  0  0
    6.8848    2.1924    0.0000 H   0  0  0  0  0  0  0  0  0  0  0  0
    7.3747    2.6320    0.0000 H   0  0  0  0  0  0  0  0  0  0  0  0
    6.7960    5.3776    0.0000 H   0  0  0  0  0  0  0  0  0  0  0  0
    8.9598    2.9661    0.0000 H   0  0  0  0  0  0  0  0  0  0  0  0
    8.3812    5.7117    0.0000 H   0  0  0  0  0  0  0  0  0  0  0  0
    9.4631    4.5059    0.0000 H   0  0  0  0  0  0  0  0  0  0  0  0
  1 16  2  0  0  0  0
  2 27  1  0  0  0  0
  2 28  1  0  0  0  0
  3 11  1  0  0  0  0
  3 13  1  0  0  0  0
  3 16  1  0  0  0  0
  4  5  1  0  0  0  0
  9  4  1  1  0  0  0
  4 14  1  0  0  0  0
  5 17  2  0  0  0  0
  6 14  2  0  0  0  0
  6 21  1  0  0  0  0
  7 18  1  0  0  0  0
  7 21  2  0  0  0  0
  8 18  1  0  0  0  0
  8 47  1  0  0  0  0
  8 48  1  0  0  0  0
  9 10  1  0  0  0  0
  9 11  1  0  0  0  0
  9 34  1  0  0  0  0
 10 12  1  0  0  0  0
 10 35  1  0  0  0  0
 10 36  1  0  0  0  0
 11 37  1  0  0  0  0
 11 38  1  0  0  0  0
 12 13  1  0  0  0  0
 12 39  1  0  0  0  0
 12 40  1  0  0  0  0
 13 41  1  0  0  0  0
 13 42  1  0  0  0  0
 14 15  1  0  0  0  0
 15 17  1  0  0  0  0
 15 18  2  0  0  0  0
 16 20  1  0  0  0  0
 17 19  1  0  0  0  0
 19 22  2  0  0  0  0
 19 23  1  0  0  0  0
 20 24  2  0  0  0  0
 20 43  1  0  0  0  0
 21 44  1  0  0  0  0
 22 25  1  0  0  0  0
 22 45  1  0  0  0  0
 23 26  2  0  0  0  0
 23 46  1  0  0  0  0
 24 49  1  0  0  0  0
 24 50  1  0  0  0  0
 25 27  2  0  0  0  0
 25 51  1  0  0  0  0
 26 27  1  0  0  0  0
 26 52  1  0  0  0  0
 28 29  2  0  0  0  0
 28 30  1  0  0  0  0
 29 31  1  0  0  0  0
 29 53  1  0  0  0  0
 30 32  2  0  0  0  0
 30 54  1  0  0  0  0
 31 33  2  0  0  0  0
 31 55  1  0  0  0  0
 32 33  1  0  0  0  0
 32 56  1  0  0  0  0
 33 57  1  0  0  0  0
M  END
> <PUBCHEM_COMPOUND_CID>
24821094

> <PUBCHEM_COMPOUND_CANONICALIZED>
1

> <PUBCHEM_CACTVS_COMPLEXITY>
678

> <PUBCHEM_CACTVS_HBOND_ACCEPTOR>
6

> <PUBCHEM_CACTVS_HBOND_DONOR>
1

> <PUBCHEM_CACTVS_ROTATABLE_BOND>
5

> <PUBCHEM_CACTVS_SUBSKEYS>
AAADceB7sAAAAAAAAAAAAAAAAAAAAWAAAAA8eIEAAAAAAFgB/AAAHgAYAAAADCzBnwQ1tt9IFACqAydzdACSjCsxoKAd2CAuTNiMbqLE+duWvCjszhPI6KeQ0OEOIAAAAAAAAABAAAAAAAAAAAAAAAAAAA==

> <PUBCHEM_IUPAC_OPENEYE_NAME>
1-[(3R)-3-[4-amino-3-(4-phenoxyphenyl)pyrazolo[3,4-d]pyrimidin-1-yl]-1-piperidyl]prop-2-en-1-one

> <PUBCHEM_IUPAC_CAS_NAME>
1-[(3R)-3-[4-amino-3-(4-phenoxyphenyl)-1-pyrazolo[3,4-d]pyrimidinyl]-1-piperidinyl]-2-propen-1-one

> <PUBCHEM_IUPAC_NAME_MARKUP>
1-[(3<I>R</I>)-3-[4-amino-3-(4-phenoxyphenyl)pyrazolo[3,4-d]pyrimidin-1-yl]piperidin-1-yl]prop-2-en-1-one

> <PUBCHEM_IUPAC_NAME>
1-[(3R)-3-[4-amino-3-(4-phenoxyphenyl)pyrazolo[3,4-d]pyrimidin-1-yl]piperidin-1-yl]prop-2-en-1-one

> <PUBCHEM_IUPAC_SYSTEMATIC_NAME>
1-[(3R)-3-[4-azanyl-3-(4-phenoxyphenyl)pyrazolo[3,4-d]pyrimidin-1-yl]piperidin-1-yl]prop-2-en-1-one

> <PUBCHEM_IUPAC_TRADITIONAL_NAME>
1-[(3R)-3-[4-amino-3-(4-phenoxyphenyl)pyrazolo[3,4-d]pyrimidin-1-yl]piperidino]prop-2-en-1-one

> <PUBCHEM_IUPAC_INCHI>
InChI=1S/C25H24N6O2/c1-2-21(32)30-14-6-7-18(15-30)31-25-22(24(26)27-16-28-25)23(29-31)17-10-12-20(13-11-17)33-19-8-4-3-5-9-19/h2-5,8-13,16,18H,1,6-7,14-15H2,(H2,26,27,28)/t18-/m1/s1

> <PUBCHEM_IUPAC_INCHIKEY>
XYFPWWZEPKGCCK-GOSISDBHSA-N

> <PUBCHEM_XLOGP3_AA>
3.6

> <PUBCHEM_EXACT_MASS>
440.196074

> <PUBCHEM_MOLECULAR_FORMULA>
C25H24N6O2

> <PUBCHEM_MOLECULAR_WEIGHT>
440.5

> <PUBCHEM_OPENEYE_CAN_SMILES>
C=CC(=O)N1CCCC(C1)N2C3=NC=NC(=C3C(=N2)C4=CC=C(C=C4)OC5=CC=CC=C5)N

> <PUBCHEM_OPENEYE_ISO_SMILES>
C=CC(=O)N1CCC[C@H](C1)N2C3=NC=NC(=C3C(=N2)C4=CC=C(C=C4)OC5=CC=CC=C5)N

> <PUBCHEM_CACTVS_TPSA>
99.2

> <PUBCHEM_MONOISOTOPIC_WEIGHT>
440.196074

> <PUBCHEM_TOTAL_CHARGE>
0

> <PUBCHEM_HEAVY_ATOM_COUNT>
33

> <PUBCHEM_ATOM_DEF_STEREO_COUNT>
1

> <PUBCHEM_ATOM_UDEF_STEREO_COUNT>
0

> <PUBCHEM_BOND_DEF_STEREO_COUNT>
0

> <PUBCHEM_BOND_UDEF_STEREO_COUNT>
0

> <PUBCHEM_ISOTOPIC_ATOM_COUNT>
0

> <PUBCHEM_COMPONENT_COUNT>
1

> <PUBCHEM_CACTVS_TAUTO_COUNT>
-1

> <PUBCHEM_COORDINATE_TYPE>
1
5
255

> <PUBCHEM_BONDANNOTATIONS>
14  15  8
15  17  8
15  18  8
19  22  8
19  23  8
22  25  8
23  26  8
25  27  8
26  27  8
28  29  8
28  30  8
29  31  8
30  32  8
31  33  8
32  33  8
4  14  8
4  5  8
9  4  5
5  17  8
6  14  8
6  21  8
7  18  8
7  21  8

$$$$
