25127112
  -OEChem-05242006132D

 49 51  0     1  0  0  0  0  0999 V2000
    8.0622    4.1323    0.0000 P   0  0  0  0  0  0  0  0  0  0  0  0
    8.9282    4.6323    0.0000 O   0  0  0  0  0  0  0  0  0  0  0  0
    7.1962    3.6323    0.0000 O   0  0  0  0  0  0  0  0  0  0  0  0
    7.5622    4.9983    0.0000 O   0  0  0  0  0  0  0  0  0  0  0  0
    8.5622    3.2663    0.0000 O   0  0  0  0  0  0  0  0  0  0  0  0
    1.9030    4.9329    0.0000 N   0  0  0  0  0  0  0  0  0  0  0  0
    0.9030    4.9329    0.0000 N   0  0  0  0  0  0  0  0  0  0  0  0
    4.6608    7.2554    0.0000 N   0  0  0  0  0  0  0  0  0  0  0  0
    0.5369    1.8940    0.0000 N   0  0  0  0  0  0  0  0  0  0  0  0
    3.2152    0.5893    0.0000 N   0  0  0  0  0  0  0  0  0  0  0  0
    1.4030    0.3941    0.0000 N   0  0  0  0  0  0  0  0  0  0  0  0
    2.0840    6.6555    0.0000 C   0  0  0  0  0  0  0  0  0  0  0  0
    2.5840    7.5215    0.0000 C   0  0  0  0  0  0  0  0  0  0  0  0
    1.1059    6.8634    0.0000 C   0  0  0  0  0  0  0  0  0  0  0  0
    2.4907    5.7419    0.0000 C   0  0  1  0  0  0  0  0  0  0  0  0
    1.9149    8.2646    0.0000 C   0  0  0  0  0  0  0  0  0  0  0  0
    1.0013    7.8579    0.0000 C   0  0  0  0  0  0  0  0  0  0  0  0
    3.4853    5.6374    0.0000 C   0  0  0  0  0  0  0  0  0  0  0  0
    2.2120    3.9818    0.0000 C   0  0  0  0  0  0  0  0  0  0  0  0
    1.4030    3.3940    0.0000 C   0  0  0  0  0  0  0  0  0  0  0  0
    4.0730    6.4464    0.0000 C   0  0  0  0  0  0  0  0  0  0  0  0
    0.5939    3.9818    0.0000 C   0  0  0  0  0  0  0  0  0  0  0  0
    1.4030    2.3940    0.0000 C   0  0  0  0  0  0  0  0  0  0  0  0
    2.2690    1.8940    0.0000 C   0  0  0  0  0  0  0  0  0  0  0  0
    2.2690    0.8941    0.0000 C   0  0  0  0  0  0  0  0  0  0  0  0
    3.2152    2.1988    0.0000 C   0  0  0  0  0  0  0  0  0  0  0  0
    3.7988    1.3940    0.0000 C   0  0  0  0  0  0  0  0  0  0  0  0
    0.5369    0.8941    0.0000 C   0  0  0  0  0  0  0  0  0  0  0  0
    1.6938    6.1736    0.0000 H   0  0  0  0  0  0  0  0  0  0  0  0
    3.0856    7.1571    0.0000 H   0  0  0  0  0  0  0  0  0  0  0  0
    2.9989    7.9822    0.0000 H   0  0  0  0  0  0  0  0  0  0  0  0
    0.4859    6.8634    0.0000 H   0  0  0  0  0  0  0  0  0  0  0  0
    1.0410    6.2468    0.0000 H   0  0  0  0  0  0  0  0  0  0  0  0
    2.7429    5.1755    0.0000 H   0  0  0  0  0  0  0  0  0  0  0  0
    2.4165    8.6291    0.0000 H   0  0  0  0  0  0  0  0  0  0  0  0
    1.6049    8.8016    0.0000 H   0  0  0  0  0  0  0  0  0  0  0  0
    0.8097    8.4476    0.0000 H   0  0  0  0  0  0  0  0  0  0  0  0
    0.3949    7.7290    0.0000 H   0  0  0  0  0  0  0  0  0  0  0  0
    3.3144    5.0414    0.0000 H   0  0  0  0  0  0  0  0  0  0  0  0
    4.0425    5.3656    0.0000 H   0  0  0  0  0  0  0  0  0  0  0  0
    2.8016    3.7902    0.0000 H   0  0  0  0  0  0  0  0  0  0  0  0
    0.0043    3.7902    0.0000 H   0  0  0  0  0  0  0  0  0  0  0  0
    3.4078    2.7881    0.0000 H   0  0  0  0  0  0  0  0  0  0  0  0
    3.4078    0.0000    0.0000 H   0  0  0  0  0  0  0  0  0  0  0  0
    4.4188    1.3940    0.0000 H   0  0  0  0  0  0  0  0  0  0  0  0
    0.0000    0.5841    0.0000 H   0  0  0  0  0  0  0  0  0  0  0  0
    9.4652    4.3223    0.0000 H   0  0  0  0  0  0  0  0  0  0  0  0
    6.6593    3.9423    0.0000 H   0  0  0  0  0  0  0  0  0  0  0  0
    7.8722    5.5353    0.0000 H   0  0  0  0  0  0  0  0  0  0  0  0
  1  2  1  0  0  0  0
  1  3  1  0  0  0  0
  1  4  1  0  0  0  0
  1  5  2  0  0  0  0
  2 47  1  0  0  0  0
  3 48  1  0  0  0  0
  4 49  1  0  0  0  0
  6  7  1  0  0  0  0
  6 15  1  0  0  0  0
  6 19  1  0  0  0  0
  7 22  2  0  0  0  0
  8 21  3  0  0  0  0
  9 23  1  0  0  0  0
  9 28  2  0  0  0  0
 10 25  1  0  0  0  0
 10 27  1  0  0  0  0
 10 44  1  0  0  0  0
 11 25  2  0  0  0  0
 11 28  1  0  0  0  0
 12 13  1  0  0  0  0
 12 14  1  0  0  0  0
 12 15  1  0  0  0  0
 12 29  1  0  0  0  0
 13 16  1  0  0  0  0
 13 30  1  0  0  0  0
 13 31  1  0  0  0  0
 14 17  1  0  0  0  0
 14 32  1  0  0  0  0
 14 33  1  0  0  0  0
 15 18  1  1  0  0  0
 15 34  1  0  0  0  0
 16 17  1  0  0  0  0
 16 35  1  0  0  0  0
 16 36  1  0  0  0  0
 17 37  1  0  0  0  0
 17 38  1  0  0  0  0
 18 21  1  0  0  0  0
 18 39  1  0  0  0  0
 18 40  1  0  0  0  0
 19 20  2  0  0  0  0
 19 41  1  0  0  0  0
 20 22  1  0  0  0  0
 20 23  1  0  0  0  0
 22 42  1  0  0  0  0
 23 24  2  0  0  0  0
 24 25  1  0  0  0  0
 24 26  1  0  0  0  0
 26 27  2  0  0  0  0
 26 43  1  0  0  0  0
 27 45  1  0  0  0  0
 28 46  1  0  0  0  0
M  END
> <PUBCHEM_COMPOUND_CID>
25127112

> <PUBCHEM_COMPOUND_CANONICALIZED>
1

> <PUBCHEM_CACTVS_COMPLEXITY>
503

> <PUBCHEM_CACTVS_HBOND_ACCEPTOR>
8

> <PUBCHEM_CACTVS_HBOND_DONOR>
4

> <PUBCHEM_CACTVS_ROTATABLE_BOND>
4

> <PUBCHEM_CACTVS_SUBSKEYS>
AAADceB7uAIAAAAAAAAAAAAAAAAAAeLEAAAsAAAAAAAAAFgB/gAAHAAYCCAADSjBHwQ9sN7JkBCyRzZnZICShCmxgqAZ2aA4ZJiIqOLA2dGEpAhomALIyC8QgIAOAAAAAAAAAAAAAAAAAAAAAAAAAAAAAA==

> <PUBCHEM_IUPAC_OPENEYE_NAME>
(3R)-3-cyclopentyl-3-[4-(7H-pyrrolo[2,3-d]pyrimidin-4-yl)pyrazol-1-yl]propanenitrile;phosphoric acid

> <PUBCHEM_IUPAC_CAS_NAME>
(3R)-3-cyclopentyl-3-[4-(7H-pyrrolo[2,3-d]pyrimidin-4-yl)-1-pyrazolyl]propanenitrile;phosphoric acid

> <PUBCHEM_IUPAC_NAME_MARKUP>
(3<I>R</I>)-3-cyclopentyl-3-[4-(7<I>H</I>-pyrrolo[2,3-d]pyrimidin-4-yl)pyrazol-1-yl]propanenitrile;phosphoric acid

> <PUBCHEM_IUPAC_NAME>
(3R)-3-cyclopentyl-3-[4-(7H-pyrrolo[2,3-d]pyrimidin-4-yl)pyrazol-1-yl]propanenitrile;phosphoric acid

> <PUBCHEM_IUPAC_SYSTEMATIC_NAME>
(3R)-3-cyclopentyl-3-[4-(7H-pyrrolo[2,3-d]pyrimidin-4-yl)pyrazol-1-yl]propanenitrile;phosphoric acid

> <PUBCHEM_IUPAC_TRADITIONAL_NAME>
(3R)-3-cyclopentyl-3-[4-(7H-pyrrolo[2,3-d]pyrimidin-4-yl)pyrazol-1-yl]propionitrile;phosphoric acid

> <PUBCHEM_IUPAC_INCHI>
InChI=1S/C17H18N6.H3O4P/c18-7-5-15(12-3-1-2-4-12)23-10-13(9-22-23)16-14-6-8-19-17(14)21-11-20-16;1-5(2,3)4/h6,8-12,15H,1-5H2,(H,19,20,21);(H3,1,2,3,4)/t15-;/m1./s1

> <PUBCHEM_IUPAC_INCHIKEY>
JFMWPOCYMYGEDM-XFULWGLBSA-N

> <PUBCHEM_EXACT_MASS>
404.13619

> <PUBCHEM_MOLECULAR_FORMULA>
C17H21N6O4P

> <PUBCHEM_MOLECULAR_WEIGHT>
404.4

> <PUBCHEM_OPENEYE_CAN_SMILES>
C1CCC(C1)C(CC#N)N2C=C(C=N2)C3=C4C=CNC4=NC=N3.OP(=O)(O)O

> <PUBCHEM_OPENEYE_ISO_SMILES>
C1CCC(C1)[C@@H](CC#N)N2C=C(C=N2)C3=C4C=CNC4=NC=N3.OP(=O)(O)O

> <PUBCHEM_CACTVS_TPSA>
161

> <PUBCHEM_MONOISOTOPIC_WEIGHT>
404.13619

> <PUBCHEM_TOTAL_CHARGE>
0

> <PUBCHEM_HEAVY_ATOM_COUNT>
28

> <PUBCHEM_ATOM_DEF_STEREO_COUNT>
1

> <PUBCHEM_ATOM_UDEF_STEREO_COUNT>
0

> <PUBCHEM_BOND_DEF_STEREO_COUNT>
0

> <PUBCHEM_BOND_UDEF_STEREO_COUNT>
0

> <PUBCHEM_ISOTOPIC_ATOM_COUNT>
0

> <PUBCHEM_COMPONENT_COUNT>
2

> <PUBCHEM_CACTVS_TAUTO_COUNT>
-1

> <PUBCHEM_COORDINATE_TYPE>
1
5
255

> <PUBCHEM_BONDANNOTATIONS>
10  25  8
10  27  8
11  25  8
11  28  8
15  18  5
19  20  8
20  22  8
23  24  8
24  25  8
24  26  8
26  27  8
6  19  8
6  7  8
7  22  8
9  23  8
9  28  8

$$$$
