2815672
  -OEChem-05242006122D

 33 34  0     0  0  0  0  0  0999 V2000
    6.3301    3.7500    0.0000 O   0  0  0  0  0  0  0  0  0  0  0  0
    2.8660    2.7500    0.0000 O   0  0  0  0  0  0  0  0  0  0  0  0
    4.5981    2.7500    0.0000 N   0  0  0  0  0  0  0  0  0  0  0  0
    3.7320    1.2500    0.0000 N   0  0  0  0  0  0  0  0  0  0  0  0
    2.8660   -4.2500    0.0000 N   0  0  0  0  0  0  0  0  0  0  0  0
    4.5981    3.7500    0.0000 C   0  0  0  0  0  0  0  0  0  0  0  0
    5.4641    2.2500    0.0000 C   0  0  0  0  0  0  0  0  0  0  0  0
    5.4641    4.2500    0.0000 C   0  0  0  0  0  0  0  0  0  0  0  0
    6.3301    2.7500    0.0000 C   0  0  0  0  0  0  0  0  0  0  0  0
    3.7320    2.2500    0.0000 C   0  0  0  0  0  0  0  0  0  0  0  0
    2.8660    0.7500    0.0000 C   0  0  0  0  0  0  0  0  0  0  0  0
    2.8660   -0.2500    0.0000 C   0  0  0  0  0  0  0  0  0  0  0  0
    2.0000   -0.7500    0.0000 C   0  0  0  0  0  0  0  0  0  0  0  0
    3.7320   -0.7500    0.0000 C   0  0  0  0  0  0  0  0  0  0  0  0
    2.0000   -1.7500    0.0000 C   0  0  0  0  0  0  0  0  0  0  0  0
    3.7320   -1.7500    0.0000 C   0  0  0  0  0  0  0  0  0  0  0  0
    2.8660   -2.2500    0.0000 C   0  0  0  0  0  0  0  0  0  0  0  0
    2.8660   -3.2500    0.0000 C   0  0  0  0  0  0  0  0  0  0  0  0
    4.3860    4.3326    0.0000 H   0  0  0  0  0  0  0  0  0  0  0  0
    3.9875    3.6423    0.0000 H   0  0  0  0  0  0  0  0  0  0  0  0
    5.0656    1.7750    0.0000 H   0  0  0  0  0  0  0  0  0  0  0  0
    5.8626    1.7750    0.0000 H   0  0  0  0  0  0  0  0  0  0  0  0
    5.8626    4.7250    0.0000 H   0  0  0  0  0  0  0  0  0  0  0  0
    5.0656    4.7250    0.0000 H   0  0  0  0  0  0  0  0  0  0  0  0
    6.5422    2.1674    0.0000 H   0  0  0  0  0  0  0  0  0  0  0  0
    6.9407    2.8577    0.0000 H   0  0  0  0  0  0  0  0  0  0  0  0
    4.2690    0.9400    0.0000 H   0  0  0  0  0  0  0  0  0  0  0  0
    2.6540    1.3326    0.0000 H   0  0  0  0  0  0  0  0  0  0  0  0
    2.2554    0.6423    0.0000 H   0  0  0  0  0  0  0  0  0  0  0  0
    1.4631   -0.4400    0.0000 H   0  0  0  0  0  0  0  0  0  0  0  0
    4.2690   -0.4400    0.0000 H   0  0  0  0  0  0  0  0  0  0  0  0
    1.4631   -2.0600    0.0000 H   0  0  0  0  0  0  0  0  0  0  0  0
    4.2690   -2.0600    0.0000 H   0  0  0  0  0  0  0  0  0  0  0  0
  1  8  1  0  0  0  0
  1  9  1  0  0  0  0
  2 10  2  0  0  0  0
  3  6  1  0  0  0  0
  3  7  1  0  0  0  0
  3 10  1  0  0  0  0
  4 10  1  0  0  0  0
  4 11  1  0  0  0  0
  4 27  1  0  0  0  0
  5 18  3  0  0  0  0
  6  8  1  0  0  0  0
  6 19  1  0  0  0  0
  6 20  1  0  0  0  0
  7  9  1  0  0  0  0
  7 21  1  0  0  0  0
  7 22  1  0  0  0  0
  8 23  1  0  0  0  0
  8 24  1  0  0  0  0
  9 25  1  0  0  0  0
  9 26  1  0  0  0  0
 11 12  1  0  0  0  0
 11 28  1  0  0  0  0
 11 29  1  0  0  0  0
 12 13  2  0  0  0  0
 12 14  1  0  0  0  0
 13 15  1  0  0  0  0
 13 30  1  0  0  0  0
 14 16  2  0  0  0  0
 14 31  1  0  0  0  0
 15 17  2  0  0  0  0
 15 32  1  0  0  0  0
 16 17  1  0  0  0  0
 16 33  1  0  0  0  0
 17 18  1  0  0  0  0
M  END
> <PUBCHEM_COMPOUND_CID>
2815672

> <PUBCHEM_COMPOUND_CANONICALIZED>
1

> <PUBCHEM_CACTVS_COMPLEXITY>
322

> <PUBCHEM_CACTVS_HBOND_ACCEPTOR>
3

> <PUBCHEM_CACTVS_HBOND_DONOR>
1

> <PUBCHEM_CACTVS_ROTATABLE_BOND>
2

> <PUBCHEM_CACTVS_SUBSKEYS>
AAADccBzMAAAAAAAAAAAAAAAAAAAAAAAAAA8QAAAAAAAAAABAAAAHgAQAAAADADhmAYxAIPABACYBiBCEACiAAAgAAAIiIAIBIiKoCKAkRGHIAhohgKYiA8QgAAOQAAAAAAAAACAAAAAAAAAAAAAAAAAAA==

> <PUBCHEM_IUPAC_OPENEYE_NAME>
N-[(4-cyanophenyl)methyl]morpholine-4-carboxamide

> <PUBCHEM_IUPAC_CAS_NAME>
N-[(4-cyanophenyl)methyl]-4-morpholinecarboxamide

> <PUBCHEM_IUPAC_NAME_MARKUP>
<I>N</I>-[(4-cyanophenyl)methyl]morpholine-4-carboxamide

> <PUBCHEM_IUPAC_NAME>
N-[(4-cyanophenyl)methyl]morpholine-4-carboxamide

> <PUBCHEM_IUPAC_SYSTEMATIC_NAME>
N-[(4-cyanophenyl)methyl]morpholine-4-carboxamide

> <PUBCHEM_IUPAC_TRADITIONAL_NAME>
N-(4-cyanobenzyl)morpholine-4-carboxamide

> <PUBCHEM_IUPAC_INCHI>
InChI=1S/C13H15N3O2/c14-9-11-1-3-12(4-2-11)10-15-13(17)16-5-7-18-8-6-16/h1-4H,5-8,10H2,(H,15,17)

> <PUBCHEM_IUPAC_INCHIKEY>
ZXWAHHRBFVCEAR-UHFFFAOYSA-N

> <PUBCHEM_XLOGP3_AA>
0.4

> <PUBCHEM_EXACT_MASS>
245.116427

> <PUBCHEM_MOLECULAR_FORMULA>
C13H15N3O2

> <PUBCHEM_MOLECULAR_WEIGHT>
245.28

> <PUBCHEM_OPENEYE_CAN_SMILES>
C1COCCN1C(=O)NCC2=CC=C(C=C2)C#N

> <PUBCHEM_OPENEYE_ISO_SMILES>
C1COCCN1C(=O)NCC2=CC=C(C=C2)C#N

> <PUBCHEM_CACTVS_TPSA>
65.4

> <PUBCHEM_MONOISOTOPIC_WEIGHT>
245.116427

> <PUBCHEM_TOTAL_CHARGE>
0

> <PUBCHEM_HEAVY_ATOM_COUNT>
18

> <PUBCHEM_ATOM_DEF_STEREO_COUNT>
0

> <PUBCHEM_ATOM_UDEF_STEREO_COUNT>
0

> <PUBCHEM_BOND_DEF_STEREO_COUNT>
0

> <PUBCHEM_BOND_UDEF_STEREO_COUNT>
0

> <PUBCHEM_ISOTOPIC_ATOM_COUNT>
0

> <PUBCHEM_COMPONENT_COUNT>
1

> <PUBCHEM_CACTVS_TAUTO_COUNT>
-1

> <PUBCHEM_COORDINATE_TYPE>
1
5
255

> <PUBCHEM_BONDANNOTATIONS>
12  13  8
12  14  8
13  15  8
14  16  8
15  17  8
16  17  8

$$$$
