3033924
  -OEChem-05242006122D

 95100  0     1  0  0  0  0  0999 V2000
    7.9530    6.1892    0.0000 F   0  0  0  0  0  0  0  0  0  0  0  0
    7.9530   15.4275    0.0000 F   0  0  0  0  0  0  0  0  0  0  0  0
    6.1770    3.1824    0.0000 O   0  0  0  0  0  0  0  0  0  0  0  0
    6.1770   12.4207    0.0000 O   0  0  0  0  0  0  0  0  0  0  0  0
   10.5408    3.7009    0.0000 O   0  0  0  0  0  0  0  0  0  0  0  0
   10.5408   12.9391    0.0000 O   0  0  0  0  0  0  0  0  0  0  0  0
   10.5873    0.7202    0.0000 O   0  0  0  0  0  0  0  0  0  0  0  0
   10.5873    9.9585    0.0000 O   0  0  0  0  0  0  0  0  0  0  0  0
   11.4236    2.2370    0.0000 O   0  0  0  0  0  0  0  0  0  0  0  0
   11.4236   11.4752    0.0000 O   0  0  0  0  0  0  0  0  0  0  0  0
    0.5369    7.9807    0.0000 O   0  0  0  0  0  0  0  0  0  0  0  0
    6.2210    5.1892    0.0000 N   0  0  0  0  0  0  0  0  0  0  0  0
    6.2210   14.4275    0.0000 N   0  0  0  0  0  0  0  0  0  0  0  0
    7.9691    2.1477    0.0000 N   0  0  0  0  0  0  0  0  0  0  0  0
    7.9691   11.3860    0.0000 N   0  0  0  0  0  0  0  0  0  0  0  0
    4.4889    6.1892    0.0000 N   0  0  0  0  0  0  0  0  0  0  0  0
    4.4889   15.4275    0.0000 N   0  0  0  0  0  0  0  0  0  0  0  0
    5.3549    4.6892    0.0000 C   0  0  0  0  0  0  0  0  0  0  0  0
    6.2210    6.1892    0.0000 C   0  0  0  0  0  0  0  0  0  0  0  0
    5.3549   13.9275    0.0000 C   0  0  0  0  0  0  0  0  0  0  0  0
    6.2210   15.4275    0.0000 C   0  0  0  0  0  0  0  0  0  0  0  0
    7.0870    4.6892    0.0000 C   0  0  0  0  0  0  0  0  0  0  0  0
    7.0870   13.9275    0.0000 C   0  0  0  0  0  0  0  0  0  0  0  0
    7.0710    1.6200    0.0000 C   0  0  2  0  0  0  0  0  0  0  0  0
    7.0710   10.8582    0.0000 C   0  0  2  0  0  0  0  0  0  0  0  0
    7.9530    3.1892    0.0000 C   0  0  0  0  0  0  0  0  0  0  0  0
    7.9530   12.4275    0.0000 C   0  0  0  0  0  0  0  0  0  0  0  0
    7.0870    3.6892    0.0000 C   0  0  0  0  0  0  0  0  0  0  0  0
    7.0870   12.9275    0.0000 C   0  0  0  0  0  0  0  0  0  0  0  0
    4.4889    5.1892    0.0000 C   0  0  0  0  0  0  0  0  0  0  0  0
    5.3549    6.6892    0.0000 C   0  0  0  0  0  0  0  0  0  0  0  0
    4.4889   14.4275    0.0000 C   0  0  0  0  0  0  0  0  0  0  0  0
    5.3549   15.9275    0.0000 C   0  0  0  0  0  0  0  0  0  0  0  0
    6.1689    2.1408    0.0000 C   0  0  0  0  0  0  0  0  0  0  0  0
    6.1690   11.3791    0.0000 C   0  0  0  0  0  0  0  0  0  0  0  0
    8.8190    3.6892    0.0000 C   0  0  0  0  0  0  0  0  0  0  0  0
    8.8190   12.9275    0.0000 C   0  0  0  0  0  0  0  0  0  0  0  0
    7.9530    5.1892    0.0000 C   0  0  0  0  0  0  0  0  0  0  0  0
    7.9530   14.4275    0.0000 C   0  0  0  0  0  0  0  0  0  0  0  0
    8.8462    1.6850    0.0000 C   0  0  0  0  0  0  0  0  0  0  0  0
    8.8462   10.9232    0.0000 C   0  0  0  0  0  0  0  0  0  0  0  0
    8.8190    4.6892    0.0000 C   0  0  0  0  0  0  0  0  0  0  0  0
    8.8190   13.9275    0.0000 C   0  0  0  0  0  0  0  0  0  0  0  0
    7.0749    0.6200    0.0000 C   0  0  0  0  0  0  0  0  0  0  0  0
    7.0749    9.8582    0.0000 C   0  0  0  0  0  0  0  0  0  0  0  0
    9.6785    3.1945    0.0000 C   0  0  0  0  0  0  0  0  0  0  0  0
    9.6785   12.4327    0.0000 C   0  0  0  0  0  0  0  0  0  0  0  0
    3.6229    6.6892    0.0000 C   0  0  0  0  0  0  0  0  0  0  0  0
    3.6229   15.9275    0.0000 C   0  0  0  0  0  0  0  0  0  0  0  0
    9.6919    2.2029    0.0000 C   0  0  0  0  0  0  0  0  0  0  0  0
    9.6919   11.4411    0.0000 C   0  0  0  0  0  0  0  0  0  0  0  0
   10.5676    1.7200    0.0000 C   0  0  0  0  0  0  0  0  0  0  0  0
   10.5676   10.9583    0.0000 C   0  0  0  0  0  0  0  0  0  0  0  0
    4.9564    4.2143    0.0000 H   0  0  0  0  0  0  0  0  0  0  0  0
    5.7534    4.2143    0.0000 H   0  0  0  0  0  0  0  0  0  0  0  0
    6.8315    6.0816    0.0000 H   0  0  0  0  0  0  0  0  0  0  0  0
    6.4330    6.7719    0.0000 H   0  0  0  0  0  0  0  0  0  0  0  0
    4.9564   13.4526    0.0000 H   0  0  0  0  0  0  0  0  0  0  0  0
    5.7534   13.4526    0.0000 H   0  0  0  0  0  0  0  0  0  0  0  0
    6.8315   15.3198    0.0000 H   0  0  0  0  0  0  0  0  0  0  0  0
    6.4330   16.0101    0.0000 H   0  0  0  0  0  0  0  0  0  0  0  0
    7.6097    1.3131    0.0000 H   0  0  0  0  0  0  0  0  0  0  0  0
    7.6097   10.5513    0.0000 H   0  0  0  0  0  0  0  0  0  0  0  0
    3.8783    5.2969    0.0000 H   0  0  0  0  0  0  0  0  0  0  0  0
    4.2768    4.6066    0.0000 H   0  0  0  0  0  0  0  0  0  0  0  0
    5.7534    7.1642    0.0000 H   0  0  0  0  0  0  0  0  0  0  0  0
    4.9564    7.1642    0.0000 H   0  0  0  0  0  0  0  0  0  0  0  0
    3.8783   14.5352    0.0000 H   0  0  0  0  0  0  0  0  0  0  0  0
    4.2768   13.8449    0.0000 H   0  0  0  0  0  0  0  0  0  0  0  0
    5.7534   16.4024    0.0000 H   0  0  0  0  0  0  0  0  0  0  0  0
    4.9564   16.4024    0.0000 H   0  0  0  0  0  0  0  0  0  0  0  0
    5.5589    2.2516    0.0000 H   0  0  0  0  0  0  0  0  0  0  0  0
    5.9554    1.5587    0.0000 H   0  0  0  0  0  0  0  0  0  0  0  0
    5.5589   11.4899    0.0000 H   0  0  0  0  0  0  0  0  0  0  0  0
    5.9554   10.7970    0.0000 H   0  0  0  0  0  0  0  0  0  0  0  0
    8.8660    1.0653    0.0000 H   0  0  0  0  0  0  0  0  0  0  0  0
    8.8660   10.3036    0.0000 H   0  0  0  0  0  0  0  0  0  0  0  0
    9.3560    4.9992    0.0000 H   0  0  0  0  0  0  0  0  0  0  0  0
    9.3560   14.2375    0.0000 H   0  0  0  0  0  0  0  0  0  0  0  0
    6.4549    0.6176    0.0000 H   0  0  0  0  0  0  0  0  0  0  0  0
    7.0773    0.0000    0.0000 H   0  0  0  0  0  0  0  0  0  0  0  0
    7.6949    0.6224    0.0000 H   0  0  0  0  0  0  0  0  0  0  0  0
    6.4549    9.8559    0.0000 H   0  0  0  0  0  0  0  0  0  0  0  0
    7.0773    9.2383    0.0000 H   0  0  0  0  0  0  0  0  0  0  0  0
    7.6949    9.8606    0.0000 H   0  0  0  0  0  0  0  0  0  0  0  0
    3.9329    7.2262    0.0000 H   0  0  0  0  0  0  0  0  0  0  0  0
    3.0859    6.9992    0.0000 H   0  0  0  0  0  0  0  0  0  0  0  0
    3.3129    6.1523    0.0000 H   0  0  0  0  0  0  0  0  0  0  0  0
    3.9329   16.4644    0.0000 H   0  0  0  0  0  0  0  0  0  0  0  0
    3.0859   16.2375    0.0000 H   0  0  0  0  0  0  0  0  0  0  0  0
    3.3129   15.3906    0.0000 H   0  0  0  0  0  0  0  0  0  0  0  0
   11.1303    0.4208    0.0000 H   0  0  0  0  0  0  0  0  0  0  0  0
   11.1303    9.6591    0.0000 H   0  0  0  0  0  0  0  0  0  0  0  0
    1.0739    8.2907    0.0000 H   0  0  0  0  0  0  0  0  0  0  0  0
    0.0000    8.2907    0.0000 H   0  0  0  0  0  0  0  0  0  0  0  0
  1 38  1  0  0  0  0
  2 39  1  0  0  0  0
  3 28  1  0  0  0  0
  3 34  1  0  0  0  0
  4 29  1  0  0  0  0
  4 35  1  0  0  0  0
  5 46  2  0  0  0  0
  6 47  2  0  0  0  0
  7 52  1  0  0  0  0
  7 92  1  0  0  0  0
  8 53  1  0  0  0  0
  8 93  1  0  0  0  0
  9 52  2  0  0  0  0
 10 53  2  0  0  0  0
 11 94  1  0  0  0  0
 11 95  1  0  0  0  0
 12 18  1  0  0  0  0
 12 19  1  0  0  0  0
 12 22  1  0  0  0  0
 13 20  1  0  0  0  0
 13 21  1  0  0  0  0
 13 23  1  0  0  0  0
 14 24  1  0  0  0  0
 14 26  1  0  0  0  0
 14 40  1  0  0  0  0
 15 25  1  0  0  0  0
 15 27  1  0  0  0  0
 15 41  1  0  0  0  0
 16 30  1  0  0  0  0
 16 31  1  0  0  0  0
 16 48  1  0  0  0  0
 17 32  1  0  0  0  0
 17 33  1  0  0  0  0
 17 49  1  0  0  0  0
 18 30  1  0  0  0  0
 18 54  1  0  0  0  0
 18 55  1  0  0  0  0
 19 31  1  0  0  0  0
 19 56  1  0  0  0  0
 19 57  1  0  0  0  0
 20 32  1  0  0  0  0
 20 58  1  0  0  0  0
 20 59  1  0  0  0  0
 21 33  1  0  0  0  0
 21 60  1  0  0  0  0
 21 61  1  0  0  0  0
 22 28  1  0  0  0  0
 22 38  2  0  0  0  0
 23 29  1  0  0  0  0
 23 39  2  0  0  0  0
 24 34  1  0  0  0  0
 24 44  1  1  0  0  0
 24 62  1  0  0  0  0
 25 35  1  0  0  0  0
 25 45  1  1  0  0  0
 25 63  1  0  0  0  0
 26 28  2  0  0  0  0
 26 36  1  0  0  0  0
 27 29  2  0  0  0  0
 27 37  1  0  0  0  0
 30 64  1  0  0  0  0
 30 65  1  0  0  0  0
 31 66  1  0  0  0  0
 31 67  1  0  0  0  0
 32 68  1  0  0  0  0
 32 69  1  0  0  0  0
 33 70  1  0  0  0  0
 33 71  1  0  0  0  0
 34 72  1  0  0  0  0
 34 73  1  0  0  0  0
 35 74  1  0  0  0  0
 35 75  1  0  0  0  0
 36 42  2  0  0  0  0
 36 46  1  0  0  0  0
 37 43  2  0  0  0  0
 37 47  1  0  0  0  0
 38 42  1  0  0  0  0
 39 43  1  0  0  0  0
 40 50  2  0  0  0  0
 40 76  1  0  0  0  0
 41 51  2  0  0  0  0
 41 77  1  0  0  0  0
 42 78  1  0  0  0  0
 43 79  1  0  0  0  0
 44 80  1  0  0  0  0
 44 81  1  0  0  0  0
 44 82  1  0  0  0  0
 45 83  1  0  0  0  0
 45 84  1  0  0  0  0
 45 85  1  0  0  0  0
 46 50  1  0  0  0  0
 47 51  1  0  0  0  0
 48 86  1  0  0  0  0
 48 87  1  0  0  0  0
 48 88  1  0  0  0  0
 49 89  1  0  0  0  0
 49 90  1  0  0  0  0
 49 91  1  0  0  0  0
 50 52  1  0  0  0  0
 51 53  1  0  0  0  0
M  END
> <PUBCHEM_COMPOUND_CID>
3033924

> <PUBCHEM_COMPOUND_CANONICALIZED>
1

> <PUBCHEM_CACTVS_COMPLEXITY>
634

> <PUBCHEM_CACTVS_HBOND_ACCEPTOR>
17

> <PUBCHEM_CACTVS_HBOND_DONOR>
3

> <PUBCHEM_CACTVS_ROTATABLE_BOND>
4

> <PUBCHEM_CACTVS_SUBSKEYS>
AAADcfB/vYAAAAAAAAAAAAAAAAAAAAAAAAA8eLFiAAAAAACxQAAAHwAACAAADCzhmA4yzoMABgCIAqTWSACCCAAlIAAAiAENTMgOZj7M9NuXeajk4BHY+cea2bOeCAABAAQCEAAQAAIACAQgAAAAAAAAAA==

> <PUBCHEM_IUPAC_OPENEYE_NAME>
(2S)-7-fluoro-2-methyl-6-(4-methylpiperazin-1-yl)-10-oxo-4-oxa-1-azatricyclo[7.3.1.05,13]trideca-5(13),6,8,11-tetraene-11-carboxylic acid;hydrate

> <PUBCHEM_IUPAC_CAS_NAME>
(2S)-7-fluoro-2-methyl-6-(4-methyl-1-piperazinyl)-10-oxo-4-oxa-1-azatricyclo[7.3.1.05,13]trideca-5(13),6,8,11-tetraene-11-carboxylic acid;hydrate

> <PUBCHEM_IUPAC_NAME_MARKUP>
(2<I>S</I>)-7-fluoro-2-methyl-6-(4-methylpiperazin-1-yl)-10-oxo-4-oxa-1-azatricyclo[7.3.1.0<SUP>5,13</SUP>]trideca-5(13),6,8,11-tetraene-11-carboxylic acid;hydrate

> <PUBCHEM_IUPAC_NAME>
(2S)-7-fluoro-2-methyl-6-(4-methylpiperazin-1-yl)-10-oxo-4-oxa-1-azatricyclo[7.3.1.05,13]trideca-5(13),6,8,11-tetraene-11-carboxylic acid;hydrate

> <PUBCHEM_IUPAC_SYSTEMATIC_NAME>
(2S)-7-fluoranyl-2-methyl-6-(4-methylpiperazin-1-yl)-10-oxidanylidene-4-oxa-1-azatricyclo[7.3.1.05,13]trideca-5(13),6,8,11-tetraene-11-carboxylic acid;hydrate

> <PUBCHEM_IUPAC_TRADITIONAL_NAME>
(2S)-7-fluoro-10-keto-2-methyl-6-(4-methylpiperazino)-4-oxa-1-azatricyclo[7.3.1.05,13]trideca-5(13),6,8,11-tetraene-11-carboxylic acid;hydrate

> <PUBCHEM_IUPAC_INCHI>
InChI=1S/2C18H20FN3O4.H2O/c2*1-10-9-26-17-14-11(16(23)12(18(24)25)8-22(10)14)7-13(19)15(17)21-5-3-20(2)4-6-21;/h2*7-8,10H,3-6,9H2,1-2H3,(H,24,25);1H2/t2*10-;/m00./s1

> <PUBCHEM_IUPAC_INCHIKEY>
SUIQUYDRLGGZOL-RCWTXCDDSA-N

> <PUBCHEM_EXACT_MASS>
740.298133

> <PUBCHEM_MOLECULAR_FORMULA>
C36H42F2N6O9

> <PUBCHEM_MOLECULAR_WEIGHT>
740.7

> <PUBCHEM_OPENEYE_CAN_SMILES>
CC1COC2=C3N1C=C(C(=O)C3=CC(=C2N4CCN(CC4)C)F)C(=O)O.CC1COC2=C3N1C=C(C(=O)C3=CC(=C2N4CCN(CC4)C)F)C(=O)O.O

> <PUBCHEM_OPENEYE_ISO_SMILES>
C[C@H]1COC2=C3N1C=C(C(=O)C3=CC(=C2N4CCN(CC4)C)F)C(=O)O.C[C@H]1COC2=C3N1C=C(C(=O)C3=CC(=C2N4CCN(CC4)C)F)C(=O)O.O

> <PUBCHEM_CACTVS_TPSA>
148

> <PUBCHEM_MONOISOTOPIC_WEIGHT>
740.298133

> <PUBCHEM_TOTAL_CHARGE>
0

> <PUBCHEM_HEAVY_ATOM_COUNT>
53

> <PUBCHEM_ATOM_DEF_STEREO_COUNT>
2

> <PUBCHEM_ATOM_UDEF_STEREO_COUNT>
0

> <PUBCHEM_BOND_DEF_STEREO_COUNT>
0

> <PUBCHEM_BOND_UDEF_STEREO_COUNT>
0

> <PUBCHEM_ISOTOPIC_ATOM_COUNT>
0

> <PUBCHEM_COMPONENT_COUNT>
3

> <PUBCHEM_CACTVS_TAUTO_COUNT>
-1

> <PUBCHEM_COORDINATE_TYPE>
1
5
255

> <PUBCHEM_BONDANNOTATIONS>
14  26  8
14  40  8
15  27  8
15  41  8
22  28  8
22  38  8
23  29  8
23  39  8
24  44  5
25  45  5
26  28  8
26  36  8
27  29  8
27  37  8
36  42  8
36  46  8
37  43  8
37  47  8
38  42  8
39  43  8
40  50  8
41  51  8
46  50  8
47  51  8

$$$$
