3081372
  -OEChem-05242006122D

182186  0     1  0  0  0  0  0999 V2000
   12.7095   -3.9739    0.0000 O   0  0  0  0  0  0  0  0  0  0  0  0
   11.4651   -4.5279    0.0000 O   0  0  0  0  0  0  0  0  0  0  0  0
   12.9174   -2.9957    0.0000 O   0  0  0  0  0  0  0  0  0  0  0  0
    8.8671   -7.0279    0.0000 O   0  0  0  0  0  0  0  0  0  0  0  0
   14.4922    0.2477    0.0000 O   0  0  0  0  0  0  0  0  0  0  0  0
    6.1350   -4.5279    0.0000 O   0  0  0  0  0  0  0  0  0  0  0  0
   14.7001    1.2259    0.0000 O   0  0  0  0  0  0  0  0  0  0  0  0
   14.5807    4.8294    0.0000 O   0  0  0  0  0  0  0  0  0  0  0  0
    2.5369   -5.5279    0.0000 O   0  0  0  0  0  0  0  0  0  0  0  0
    3.4030   -7.0279    0.0000 O   0  0  0  0  0  0  0  0  0  0  0  0
    8.8743    2.9754    0.0000 O   0  0  0  0  0  0  0  0  0  0  0  0
   18.1770    5.0874    0.0000 O   0  0  0  0  0  0  0  0  0  0  0  0
   19.7518    8.3308    0.0000 O   0  0  0  0  0  0  0  0  0  0  0  0
   18.0576    8.6909    0.0000 O   0  0  0  0  0  0  0  0  0  0  0  0
   13.2447   -5.6212    0.0000 N   0  0  0  0  0  0  0  0  0  0  0  0
   10.5991   -6.0279    0.0000 N   0  0  0  0  0  0  0  0  0  0  0  0
   14.6116   -3.3558    0.0000 N   0  0  0  0  0  0  0  0  0  0  0  0
   13.3332   -1.0394    0.0000 N   0  0  0  0  0  0  0  0  0  0  0  0
   16.9069   -5.2819    0.0000 N   0  0  0  0  0  0  0  0  0  0  0  0
    7.8671   -5.5279    0.0000 N   0  0  0  0  0  0  0  0  0  0  0  0
   13.0059    1.5860    0.0000 N   0  0  0  0  0  0  0  0  0  0  0  0
   17.4069   -3.7430    0.0000 N   0  0  0  0  0  0  0  0  0  0  0  0
    5.1350   -6.0279    0.0000 N   0  0  0  0  0  0  0  0  0  0  0  0
   15.1159    3.1822    0.0000 N   0  0  0  0  0  0  0  0  0  0  0  0
    6.0305   -8.5224    0.0000 N   0  0  0  0  0  0  0  0  0  0  0  0
   16.4828    5.4475    0.0000 N   0  0  0  0  0  0  0  0  0  0  0  0
    4.5523   -7.8643    0.0000 N   0  0  0  0  0  0  0  0  0  0  0  0
   19.6633    3.7491    0.0000 N   0  0  0  0  0  0  0  0  0  0  0  0
   16.8986    7.4038    0.0000 N   0  0  0  0  0  0  0  0  0  0  0  0
   21.3575    3.3890    0.0000 N   0  0  0  0  0  0  0  0  0  0  0  0
   20.1985    2.1018    0.0000 N   0  0  0  0  0  0  0  0  0  0  0  0
   12.3312   -6.0279    0.0000 C   0  0  1  0  0  0  0  0  0  0  0  0
   12.4357   -7.0224    0.0000 C   0  0  0  0  0  0  0  0  0  0  0  0
   13.4138   -7.2303    0.0000 C   0  0  0  0  0  0  0  0  0  0  0  0
   13.9138   -6.3643    0.0000 C   0  0  0  0  0  0  0  0  0  0  0  0
   13.4526   -4.6430    0.0000 C   0  0  0  0  0  0  0  0  0  0  0  0
   11.4651   -5.5279    0.0000 C   0  0  0  0  0  0  0  0  0  0  0  0
   14.4037   -4.3340    0.0000 C   0  0  2  0  0  0  0  0  0  0  0  0
   15.1468   -5.0031    0.0000 C   0  0  0  0  0  0  0  0  0  0  0  0
    9.7331   -5.5279    0.0000 C   0  0  1  0  0  0  0  0  0  0  0  0
   14.0764   -1.7086    0.0000 C   0  0  1  0  0  0  0  0  0  0  0  0
   15.0274   -1.3996    0.0000 C   0  0  2  0  0  0  0  0  0  0  0  0
   13.8684   -2.6867    0.0000 C   0  0  0  0  0  0  0  0  0  0  0  0
   16.0979   -4.6941    0.0000 C   0  0  0  0  0  0  0  0  0  0  0  0
    9.7331   -4.5279    0.0000 C   0  0  0  0  0  0  0  0  0  0  0  0
   15.2353   -0.4214    0.0000 C   0  0  0  0  0  0  0  0  0  0  0  0
    8.8671   -6.0279    0.0000 C   0  0  0  0  0  0  0  0  0  0  0  0
   15.7706   -2.0687    0.0000 C   0  0  0  0  0  0  0  0  0  0  0  0
    8.8671   -4.0279    0.0000 C   0  0  0  0  0  0  0  0  0  0  0  0
   16.4069   -3.7430    0.0000 C   0  0  0  0  0  0  0  0  0  0  0  0
   13.5411   -0.0613    0.0000 C   0  0  0  0  0  0  0  0  0  0  0  0
   12.7980    0.6078    0.0000 C   0  0  2  0  0  0  0  0  0  0  0  0
    7.0010   -6.0279    0.0000 C   0  0  1  0  0  0  0  0  0  0  0  0
   16.1864   -0.1124    0.0000 C   0  0  0  0  0  0  0  0  0  0  0  0
   11.8469    0.2988    0.0000 C   0  0  0  0  0  0  0  0  0  0  0  0
   17.7159   -4.6941    0.0000 C   0  0  0  0  0  0  0  0  0  0  0  0
    7.0010   -7.0279    0.0000 C   0  0  0  0  0  0  0  0  0  0  0  0
    8.8671   -3.0279    0.0000 C   0  0  0  0  0  0  0  0  0  0  0  0
    8.0010   -4.5279    0.0000 C   0  0  0  0  0  0  0  0  0  0  0  0
   14.1649    2.8732    0.0000 C   0  0  1  0  0  0  0  0  0  0  0  0
    6.1350   -5.5279    0.0000 C   0  0  0  0  0  0  0  0  0  0  0  0
   13.4217    3.5423    0.0000 C   0  0  0  0  0  0  0  0  0  0  0  0
   13.9569    1.8950    0.0000 C   0  0  0  0  0  0  0  0  0  0  0  0
   11.1038    0.9680    0.0000 C   0  0  0  0  0  0  0  0  0  0  0  0
    6.1350   -7.5279    0.0000 C   0  0  0  0  0  0  0  0  0  0  0  0
    8.0010   -2.5279    0.0000 C   0  0  0  0  0  0  0  0  0  0  0  0
    7.1350   -4.0279    0.0000 C   0  0  0  0  0  0  0  0  0  0  0  0
    4.2690   -5.5279    0.0000 C   0  0  1  0  0  0  0  0  0  0  0  0
    4.2690   -4.5279    0.0000 C   0  0  0  0  0  0  0  0  0  0  0  0
    7.1350   -3.0279    0.0000 C   0  0  0  0  0  0  0  0  0  0  0  0
   13.6296    4.5204    0.0000 C   0  0  0  0  0  0  0  0  0  0  0  0
   12.4707    3.2333    0.0000 C   0  0  0  0  0  0  0  0  0  0  0  0
   16.2749    4.4693    0.0000 C   0  0  2  0  0  0  0  0  0  0  0  0
    3.4030   -4.0279    0.0000 C   0  0  0  0  0  0  0  0  0  0  0  0
   15.3238    4.1603    0.0000 C   0  0  0  0  0  0  0  0  0  0  0  0
   10.1527    0.6589    0.0000 C   0  0  0  0  0  0  0  0  0  0  0  0
   11.3117    1.9461    0.0000 C   0  0  0  0  0  0  0  0  0  0  0  0
   17.0180    3.8002    0.0000 C   0  0  0  0  0  0  0  0  0  0  0  0
    5.2215   -7.1212    0.0000 C   0  0  0  0  0  0  0  0  0  0  0  0
    3.4030   -6.0279    0.0000 C   0  0  0  0  0  0  0  0  0  0  0  0
   17.9691    4.1092    0.0000 C   0  0  0  0  0  0  0  0  0  0  0  0
    3.4030   -3.0279    0.0000 C   0  0  0  0  0  0  0  0  0  0  0  0
    2.5369   -4.5279    0.0000 C   0  0  0  0  0  0  0  0  0  0  0  0
    9.4096    1.3281    0.0000 C   0  0  0  0  0  0  0  0  0  0  0  0
   10.5685    2.6152    0.0000 C   0  0  0  0  0  0  0  0  0  0  0  0
    5.0523   -8.7303    0.0000 C   0  0  0  0  0  0  0  0  0  0  0  0
    9.6175    2.3062    0.0000 C   0  0  0  0  0  0  0  0  0  0  0  0
   18.7122    3.4401    0.0000 C   0  0  0  0  0  0  0  0  0  0  0  0
   17.4338    5.7565    0.0000 C   0  0  0  0  0  0  0  0  0  0  0  0
   17.6418    6.7346    0.0000 C   0  0  2  0  0  0  0  0  0  0  0  0
   18.5928    7.0437    0.0000 C   0  0  0  0  0  0  0  0  0  0  0  0
   18.8007    8.0218    0.0000 C   0  0  0  0  0  0  0  0  0  0  0  0
   20.4064    3.0800    0.0000 C   0  0  0  0  0  0  0  0  0  0  0  0
   12.3636   -5.4088    0.0000 H   0  0  0  0  0  0  0  0  0  0  0  0
   11.8157   -7.0224    0.0000 H   0  0  0  0  0  0  0  0  0  0  0  0
   12.3709   -7.6390    0.0000 H   0  0  0  0  0  0  0  0  0  0  0  0
   13.2222   -7.8200    0.0000 H   0  0  0  0  0  0  0  0  0  0  0  0
   13.9802   -7.4825    0.0000 H   0  0  0  0  0  0  0  0  0  0  0  0
   14.4154   -6.7287    0.0000 H   0  0  0  0  0  0  0  0  0  0  0  0
   14.3287   -5.9036    0.0000 H   0  0  0  0  0  0  0  0  0  0  0  0
   13.9429   -3.9191    0.0000 H   0  0  0  0  0  0  0  0  0  0  0  0
   14.6583   -5.3848    0.0000 H   0  0  0  0  0  0  0  0  0  0  0  0
   15.4379   -5.5506    0.0000 H   0  0  0  0  0  0  0  0  0  0  0  0
   10.5991   -6.6479    0.0000 H   0  0  0  0  0  0  0  0  0  0  0  0
   15.2012   -3.1643    0.0000 H   0  0  0  0  0  0  0  0  0  0  0  0
    9.7331   -6.1479    0.0000 H   0  0  0  0  0  0  0  0  0  0  0  0
   13.4867   -1.9002    0.0000 H   0  0  0  0  0  0  0  0  0  0  0  0
   14.8985   -2.0060    0.0000 H   0  0  0  0  0  0  0  0  0  0  0  0
   10.3437   -4.6356    0.0000 H   0  0  0  0  0  0  0  0  0  0  0  0
    9.9451   -3.9453    0.0000 H   0  0  0  0  0  0  0  0  0  0  0  0
   15.1490    0.1926    0.0000 H   0  0  0  0  0  0  0  0  0  0  0  0
   14.6157   -0.3998    0.0000 H   0  0  0  0  0  0  0  0  0  0  0  0
   12.7436   -1.2310    0.0000 H   0  0  0  0  0  0  0  0  0  0  0  0
   15.3557   -2.5294    0.0000 H   0  0  0  0  0  0  0  0  0  0  0  0
   16.2313   -2.4835    0.0000 H   0  0  0  0  0  0  0  0  0  0  0  0
   16.1854   -1.6079    0.0000 H   0  0  0  0  0  0  0  0  0  0  0  0
   16.9069   -5.9019    0.0000 H   0  0  0  0  0  0  0  0  0  0  0  0
   16.0425   -3.2415    0.0000 H   0  0  0  0  0  0  0  0  0  0  0  0
    8.4040   -5.2179    0.0000 H   0  0  0  0  0  0  0  0  0  0  0  0
   13.3876    0.7994    0.0000 H   0  0  0  0  0  0  0  0  0  0  0  0
   16.3780   -0.7020    0.0000 H   0  0  0  0  0  0  0  0  0  0  0  0
   16.7760    0.0792    0.0000 H   0  0  0  0  0  0  0  0  0  0  0  0
   15.9948    0.4773    0.0000 H   0  0  0  0  0  0  0  0  0  0  0  0
    7.5380   -6.3379    0.0000 H   0  0  0  0  0  0  0  0  0  0  0  0
   11.3584   -0.0829    0.0000 H   0  0  0  0  0  0  0  0  0  0  0  0
   12.1380   -0.2486    0.0000 H   0  0  0  0  0  0  0  0  0  0  0  0
   18.3056   -4.8857    0.0000 H   0  0  0  0  0  0  0  0  0  0  0  0
    7.2131   -7.6105    0.0000 H   0  0  0  0  0  0  0  0  0  0  0  0
    7.6116   -6.9202    0.0000 H   0  0  0  0  0  0  0  0  0  0  0  0
   12.5451    2.0008    0.0000 H   0  0  0  0  0  0  0  0  0  0  0  0
    9.4040   -2.7179    0.0000 H   0  0  0  0  0  0  0  0  0  0  0  0
    8.0010   -5.1479    0.0000 H   0  0  0  0  0  0  0  0  0  0  0  0
   14.2938    3.4796    0.0000 H   0  0  0  0  0  0  0  0  0  0  0  0
   12.9610    3.9571    0.0000 H   0  0  0  0  0  0  0  0  0  0  0  0
    8.0010   -1.9079    0.0000 H   0  0  0  0  0  0  0  0  0  0  0  0
    6.5981   -4.3379    0.0000 H   0  0  0  0  0  0  0  0  0  0  0  0
    4.2690   -6.1479    0.0000 H   0  0  0  0  0  0  0  0  0  0  0  0
    5.6720   -6.3379    0.0000 H   0  0  0  0  0  0  0  0  0  0  0  0
   15.5767    2.7673    0.0000 H   0  0  0  0  0  0  0  0  0  0  0  0
    4.8796   -4.6356    0.0000 H   0  0  0  0  0  0  0  0  0  0  0  0
    4.4810   -3.9453    0.0000 H   0  0  0  0  0  0  0  0  0  0  0  0
   14.2361    4.3915    0.0000 H   0  0  0  0  0  0  0  0  0  0  0  0
   13.7585    5.1269    0.0000 H   0  0  0  0  0  0  0  0  0  0  0  0
   13.0232    4.6493    0.0000 H   0  0  0  0  0  0  0  0  0  0  0  0
   12.2791    3.8229    0.0000 H   0  0  0  0  0  0  0  0  0  0  0  0
   11.8810    3.0417    0.0000 H   0  0  0  0  0  0  0  0  0  0  0  0
   12.6622    2.6436    0.0000 H   0  0  0  0  0  0  0  0  0  0  0  0
    6.5981   -2.7179    0.0000 H   0  0  0  0  0  0  0  0  0  0  0  0
   15.8141    4.8842    0.0000 H   0  0  0  0  0  0  0  0  0  0  0  0
    2.8660   -3.7179    0.0000 H   0  0  0  0  0  0  0  0  0  0  0  0
   10.0238    0.0525    0.0000 H   0  0  0  0  0  0  0  0  0  0  0  0
   11.9013    2.1377    0.0000 H   0  0  0  0  0  0  0  0  0  0  0  0
   16.5295    3.4185    0.0000 H   0  0  0  0  0  0  0  0  0  0  0  0
   17.3091    3.2528    0.0000 H   0  0  0  0  0  0  0  0  0  0  0  0
    6.4912   -8.9373    0.0000 H   0  0  0  0  0  0  0  0  0  0  0  0
    5.0926   -6.5147    0.0000 H   0  0  0  0  0  0  0  0  0  0  0  0
   18.4577    4.4909    0.0000 H   0  0  0  0  0  0  0  0  0  0  0  0
   17.6780    4.6566    0.0000 H   0  0  0  0  0  0  0  0  0  0  0  0
   16.0220    5.8623    0.0000 H   0  0  0  0  0  0  0  0  0  0  0  0
    4.0230   -3.0279    0.0000 H   0  0  0  0  0  0  0  0  0  0  0  0
    3.4030   -2.4079    0.0000 H   0  0  0  0  0  0  0  0  0  0  0  0
    2.7830   -3.0279    0.0000 H   0  0  0  0  0  0  0  0  0  0  0  0
    2.2269   -3.9910    0.0000 H   0  0  0  0  0  0  0  0  0  0  0  0
    2.0000   -4.8379    0.0000 H   0  0  0  0  0  0  0  0  0  0  0  0
    2.8469   -5.0648    0.0000 H   0  0  0  0  0  0  0  0  0  0  0  0
    8.8199    1.1365    0.0000 H   0  0  0  0  0  0  0  0  0  0  0  0
   10.6974    3.2217    0.0000 H   0  0  0  0  0  0  0  0  0  0  0  0
    4.8002   -9.2967    0.0000 H   0  0  0  0  0  0  0  0  0  0  0  0
   18.2237    3.0584    0.0000 H   0  0  0  0  0  0  0  0  0  0  0  0
   19.0033    2.8927    0.0000 H   0  0  0  0  0  0  0  0  0  0  0  0
   17.7707    7.3411    0.0000 H   0  0  0  0  0  0  0  0  0  0  0  0
    2.0000   -5.8379    0.0000 H   0  0  0  0  0  0  0  0  0  0  0  0
   18.6791    6.4297    0.0000 H   0  0  0  0  0  0  0  0  0  0  0  0
   19.2124    7.0220    0.0000 H   0  0  0  0  0  0  0  0  0  0  0  0
    9.0032    3.5818    0.0000 H   0  0  0  0  0  0  0  0  0  0  0  0
   17.0275    8.0102    0.0000 H   0  0  0  0  0  0  0  0  0  0  0  0
   16.3090    7.2122    0.0000 H   0  0  0  0  0  0  0  0  0  0  0  0
   21.8182    2.9741    0.0000 H   0  0  0  0  0  0  0  0  0  0  0  0
   21.4864    3.9954    0.0000 H   0  0  0  0  0  0  0  0  0  0  0  0
   20.6593    1.6870    0.0000 H   0  0  0  0  0  0  0  0  0  0  0  0
   19.6089    1.9102    0.0000 H   0  0  0  0  0  0  0  0  0  0  0  0
   19.8807    8.9373    0.0000 H   0  0  0  0  0  0  0  0  0  0  0  0
  1 36  2  0  0  0  0
  2 37  2  0  0  0  0
  3 43  2  0  0  0  0
  4 47  2  0  0  0  0
  5 51  2  0  0  0  0
  6 61  2  0  0  0  0
  7 63  2  0  0  0  0
  8 75  2  0  0  0  0
  9 80  1  0  0  0  0
  9172  1  0  0  0  0
 10 80  2  0  0  0  0
 11 87  1  0  0  0  0
 11175  1  0  0  0  0
 12 89  2  0  0  0  0
 13 92  1  0  0  0  0
 13182  1  0  0  0  0
 14 92  2  0  0  0  0
 15 32  1  0  0  0  0
 15 35  1  0  0  0  0
 15 36  1  0  0  0  0
 16 37  1  0  0  0  0
 40 16  1  6  0  0  0
 16104  1  0  0  0  0
 38 17  1  1  0  0  0
 17 43  1  0  0  0  0
 17105  1  0  0  0  0
 41 18  1  1  0  0  0
 18 51  1  0  0  0  0
 18113  1  0  0  0  0
 19 44  1  0  0  0  0
 19 56  1  0  0  0  0
 19117  1  0  0  0  0
 20 47  1  0  0  0  0
 53 20  1  1  0  0  0
 20119  1  0  0  0  0
 52 21  1  6  0  0  0
 21 63  1  0  0  0  0
 21130  1  0  0  0  0
 22 50  1  0  0  0  0
 22 56  2  0  0  0  0
 23 61  1  0  0  0  0
 68 23  1  6  0  0  0
 23138  1  0  0  0  0
 60 24  1  6  0  0  0
 24 75  1  0  0  0  0
 24139  1  0  0  0  0
 25 65  1  0  0  0  0
 25 86  1  0  0  0  0
 25155  1  0  0  0  0
 73 26  1  1  0  0  0
 26 89  1  0  0  0  0
 26159  1  0  0  0  0
 27 79  1  0  0  0  0
 27 86  2  0  0  0  0
 28 88  1  0  0  0  0
 28 93  2  0  0  0  0
 90 29  1  1  0  0  0
 29176  1  0  0  0  0
 29177  1  0  0  0  0
 30 93  1  0  0  0  0
 30178  1  0  0  0  0
 30179  1  0  0  0  0
 31 93  1  0  0  0  0
 31180  1  0  0  0  0
 31181  1  0  0  0  0
 32 33  1  0  0  0  0
 32 37  1  1  0  0  0
 32 94  1  0  0  0  0
 33 34  1  0  0  0  0
 33 95  1  0  0  0  0
 33 96  1  0  0  0  0
 34 35  1  0  0  0  0
 34 97  1  0  0  0  0
 34 98  1  0  0  0  0
 35 99  1  0  0  0  0
 35100  1  0  0  0  0
 36 38  1  0  0  0  0
 38 39  1  0  0  0  0
 38101  1  0  0  0  0
 39 44  1  0  0  0  0
 39102  1  0  0  0  0
 39103  1  0  0  0  0
 40 45  1  0  0  0  0
 40 47  1  0  0  0  0
 40106  1  0  0  0  0
 41 42  1  0  0  0  0
 41 43  1  0  0  0  0
 41107  1  0  0  0  0
 42 46  1  0  0  0  0
 42 48  1  6  0  0  0
 42108  1  0  0  0  0
 44 50  2  0  0  0  0
 45 49  1  0  0  0  0
 45109  1  0  0  0  0
 45110  1  0  0  0  0
 46 54  1  0  0  0  0
 46111  1  0  0  0  0
 46112  1  0  0  0  0
 48114  1  0  0  0  0
 48115  1  0  0  0  0
 48116  1  0  0  0  0
 49 58  2  0  0  0  0
 49 59  1  0  0  0  0
 50118  1  0  0  0  0
 51 52  1  0  0  0  0
 52 55  1  0  0  0  0
 52120  1  0  0  0  0
 53 57  1  0  0  0  0
 53 61  1  0  0  0  0
 53124  1  0  0  0  0
 54121  1  0  0  0  0
 54122  1  0  0  0  0
 54123  1  0  0  0  0
 55 64  1  0  0  0  0
 55125  1  0  0  0  0
 55126  1  0  0  0  0
 56127  1  0  0  0  0
 57 65  1  0  0  0  0
 57128  1  0  0  0  0
 57129  1  0  0  0  0
 58 66  1  0  0  0  0
 58131  1  0  0  0  0
 59 67  2  0  0  0  0
 59132  1  0  0  0  0
 60 62  1  0  0  0  0
 60 63  1  0  0  0  0
 60133  1  0  0  0  0
 62 71  1  0  0  0  0
 62 72  1  0  0  0  0
 62134  1  0  0  0  0
 64 76  2  0  0  0  0
 64 77  1  0  0  0  0
 65 79  2  0  0  0  0
 66 70  2  0  0  0  0
 66135  1  0  0  0  0
 67 70  1  0  0  0  0
 67136  1  0  0  0  0
 68 69  1  0  0  0  0
 68 80  1  0  0  0  0
 68137  1  0  0  0  0
 69 74  1  0  0  0  0
 69140  1  0  0  0  0
 69141  1  0  0  0  0
 70148  1  0  0  0  0
 71142  1  0  0  0  0
 71143  1  0  0  0  0
 71144  1  0  0  0  0
 72145  1  0  0  0  0
 72146  1  0  0  0  0
 72147  1  0  0  0  0
 73 75  1  0  0  0  0
 73 78  1  0  0  0  0
 73149  1  0  0  0  0
 74 82  1  0  0  0  0
 74 83  1  0  0  0  0
 74150  1  0  0  0  0
 76 84  1  0  0  0  0
 76151  1  0  0  0  0
 77 85  2  0  0  0  0
 77152  1  0  0  0  0
 78 81  1  0  0  0  0
 78153  1  0  0  0  0
 78154  1  0  0  0  0
 79156  1  0  0  0  0
 81 88  1  0  0  0  0
 81157  1  0  0  0  0
 81158  1  0  0  0  0
 82160  1  0  0  0  0
 82161  1  0  0  0  0
 82162  1  0  0  0  0
 83163  1  0  0  0  0
 83164  1  0  0  0  0
 83165  1  0  0  0  0
 84 87  2  0  0  0  0
 84166  1  0  0  0  0
 85 87  1  0  0  0  0
 85167  1  0  0  0  0
 86168  1  0  0  0  0
 88169  1  0  0  0  0
 88170  1  0  0  0  0
 89 90  1  0  0  0  0
 90 91  1  0  0  0  0
 90171  1  0  0  0  0
 91 92  1  0  0  0  0
 91173  1  0  0  0  0
 91174  1  0  0  0  0
M  END
> <PUBCHEM_COMPOUND_CID>
3081372

> <PUBCHEM_COMPOUND_CANONICALIZED>
1

> <PUBCHEM_CACTVS_COMPLEXITY>
2550

> <PUBCHEM_CACTVS_HBOND_ACCEPTOR>
18

> <PUBCHEM_CACTVS_HBOND_DONOR>
16

> <PUBCHEM_CACTVS_ROTATABLE_BOND>
37

> <PUBCHEM_CACTVS_SUBSKEYS>
AAADcfB//AAAAAAAAAAAAAAAAAAAAWLFgAAwYAAAAAAAAAAB9AAAHgAQCAAADSzBngQ/npfJkgCoAzX3fAACgC2xMqAJ2YG+eIiKbjrC2TOUcAAu1hPY2Ce/yaCOIAAAAAAAAABAAAAAAAAAAAAAAAAAAA==

> <PUBCHEM_IUPAC_OPENEYE_NAME>
(2S)-2-[[(2S)-2-[[(2S)-2-[[(2S)-1-[(2S)-2-[[(2S,3S)-2-[[(2S)-2-[[(2S)-2-[[(2S)-2-[[(2S)-2-amino-3-carboxy-propanoyl]amino]-5-guanidino-pentanoyl]amino]-3-methyl-butanoyl]amino]-3-(4-hydroxyphenyl)propanoyl]amino]-3-methyl-pentanoyl]amino]-3-(1H-imidazol-5-yl)propanoyl]pyrrolidine-2-carbonyl]amino]-3-phenyl-propanoyl]amino]-3-(1H-imidazol-5-yl)propanoyl]amino]-4-methyl-pentanoic acid

> <PUBCHEM_IUPAC_CAS_NAME>
(2S)-2-[[(2S)-2-[[(2S)-2-[[[(2S)-1-[(2S)-2-[[(2S,3S)-2-[[(2S)-2-[[(2S)-2-[[(2S)-2-[[(2S)-2-amino-3-carboxy-1-oxopropyl]amino]-5-(diaminomethylideneamino)-1-oxopentyl]amino]-3-methyl-1-oxobutyl]amino]-3-(4-hydroxyphenyl)-1-oxopropyl]amino]-3-methyl-1-oxopentyl]amino]-3-(1H-imidazol-5-yl)-1-oxopropyl]-2-pyrrolidinyl]-oxomethyl]amino]-1-oxo-3-phenylpropyl]amino]-3-(1H-imidazol-5-yl)-1-oxopropyl]amino]-4-methylpentanoic acid

> <PUBCHEM_IUPAC_NAME_MARKUP>
(2<I>S</I>)-2-[[(2<I>S</I>)-2-[[(2<I>S</I>)-2-[[(2<I>S</I>)-1-[(2<I>S</I>)-2-[[(2<I>S</I>,3<I>S</I>)-2-[[(2<I>S</I>)-2-[[(2<I>S</I>)-2-[[(2<I>S</I>)-2-[[(2<I>S</I>)-2-amino-3-carboxypropanoyl]amino]-5-(diaminomethylideneamino)pentanoyl]amino]-3-methylbutanoyl]amino]-3-(4-hydroxyphenyl)propanoyl]amino]-3-methylpentanoyl]amino]-3-(1<I>H</I>-imidazol-5-yl)propanoyl]pyrrolidine-2-carbonyl]amino]-3-phenylpropanoyl]amino]-3-(1<I>H</I>-imidazol-5-yl)propanoyl]amino]-4-methylpentanoic acid

> <PUBCHEM_IUPAC_NAME>
(2S)-2-[[(2S)-2-[[(2S)-2-[[(2S)-1-[(2S)-2-[[(2S,3S)-2-[[(2S)-2-[[(2S)-2-[[(2S)-2-[[(2S)-2-amino-3-carboxypropanoyl]amino]-5-(diaminomethylideneamino)pentanoyl]amino]-3-methylbutanoyl]amino]-3-(4-hydroxyphenyl)propanoyl]amino]-3-methylpentanoyl]amino]-3-(1H-imidazol-5-yl)propanoyl]pyrrolidine-2-carbonyl]amino]-3-phenylpropanoyl]amino]-3-(1H-imidazol-5-yl)propanoyl]amino]-4-methylpentanoic acid

> <PUBCHEM_IUPAC_SYSTEMATIC_NAME>
(2S)-2-[[(2S)-2-[[(2S)-2-[[(2S)-1-[(2S)-2-[[(2S,3S)-2-[[(2S)-2-[[(2S)-2-[[(2S)-2-[[(2S)-2-azanyl-4-oxidanyl-4-oxidanylidene-butanoyl]amino]-5-[bis(azanyl)methylideneamino]pentanoyl]amino]-3-methyl-butanoyl]amino]-3-(4-hydroxyphenyl)propanoyl]amino]-3-methyl-pentanoyl]amino]-3-(1H-imidazol-5-yl)propanoyl]pyrrolidin-2-yl]carbonylamino]-3-phenyl-propanoyl]amino]-3-(1H-imidazol-5-yl)propanoyl]amino]-4-methyl-pentanoic acid

> <PUBCHEM_IUPAC_TRADITIONAL_NAME>
(2S)-2-[[(2S)-2-[[(2S)-2-[[(2S)-1-[(2S)-2-[[(2S,3S)-2-[[(2S)-2-[[(2S)-2-[[(2S)-2-[[(2S)-2-amino-3-carboxy-propanoyl]amino]-5-guanidino-pentanoyl]amino]-3-methyl-butanoyl]amino]-3-(4-hydroxyphenyl)propanoyl]amino]-3-methyl-pentanoyl]amino]-3-(1H-imidazol-5-yl)propanoyl]prolyl]amino]-3-phenyl-propanoyl]amino]-3-(1H-imidazol-5-yl)propanoyl]amino]-4-methyl-valeric acid

> <PUBCHEM_IUPAC_INCHI>
InChI=1S/C62H89N17O14/c1-7-35(6)51(78-56(87)44(25-37-17-19-40(80)20-18-37)74-58(89)50(34(4)5)77-53(84)42(15-11-21-68-62(64)65)71-52(83)41(63)28-49(81)82)59(90)75-46(27-39-30-67-32-70-39)60(91)79-22-12-16-48(79)57(88)73-43(24-36-13-9-8-10-14-36)54(85)72-45(26-38-29-66-31-69-38)55(86)76-47(61(92)93)23-33(2)3/h8-10,13-14,17-20,29-35,41-48,50-51,80H,7,11-12,15-16,21-28,63H2,1-6H3,(H,66,69)(H,67,70)(H,71,83)(H,72,85)(H,73,88)(H,74,89)(H,75,90)(H,76,86)(H,77,84)(H,78,87)(H,81,82)(H,92,93)(H4,64,65,68)/t35-,41-,42-,43-,44-,45-,46-,47-,48-,50-,51-/m0/s1

> <PUBCHEM_IUPAC_INCHIKEY>
ORWYRWWVDCYOMK-HBZPZAIKSA-N

> <PUBCHEM_XLOGP3_AA>
-1.1

> <PUBCHEM_EXACT_MASS>
1295.677491

> <PUBCHEM_MOLECULAR_FORMULA>
C62H89N17O14

> <PUBCHEM_MOLECULAR_WEIGHT>
1296.5

> <PUBCHEM_OPENEYE_CAN_SMILES>
CCC(C)C(C(=O)NC(CC1=CN=CN1)C(=O)N2CCCC2C(=O)NC(CC3=CC=CC=C3)C(=O)NC(CC4=CN=CN4)C(=O)NC(CC(C)C)C(=O)O)NC(=O)C(CC5=CC=C(C=C5)O)NC(=O)C(C(C)C)NC(=O)C(CCCN=C(N)N)NC(=O)C(CC(=O)O)N

> <PUBCHEM_OPENEYE_ISO_SMILES>
CC[C@H](C)[C@@H](C(=O)N[C@@H](CC1=CN=CN1)C(=O)N2CCC[C@H]2C(=O)N[C@@H](CC3=CC=CC=C3)C(=O)N[C@@H](CC4=CN=CN4)C(=O)N[C@@H](CC(C)C)C(=O)O)NC(=O)[C@H](CC5=CC=C(C=C5)O)NC(=O)[C@H](C(C)C)NC(=O)[C@H](CCCN=C(N)N)NC(=O)[C@H](CC(=O)O)N

> <PUBCHEM_CACTVS_TPSA>
496

> <PUBCHEM_MONOISOTOPIC_WEIGHT>
1295.677491

> <PUBCHEM_TOTAL_CHARGE>
0

> <PUBCHEM_HEAVY_ATOM_COUNT>
93

> <PUBCHEM_ATOM_DEF_STEREO_COUNT>
11

> <PUBCHEM_ATOM_UDEF_STEREO_COUNT>
0

> <PUBCHEM_BOND_DEF_STEREO_COUNT>
0

> <PUBCHEM_BOND_UDEF_STEREO_COUNT>
0

> <PUBCHEM_ISOTOPIC_ATOM_COUNT>
0

> <PUBCHEM_COMPONENT_COUNT>
1

> <PUBCHEM_CACTVS_TAUTO_COUNT>
-1

> <PUBCHEM_COORDINATE_TYPE>
1
5
255

> <PUBCHEM_BONDANNOTATIONS>
40  16  6
38  17  5
41  18  5
19  44  8
19  56  8
53  20  5
52  21  6
22  50  8
22  56  8
68  23  6
60  24  6
25  65  8
25  86  8
73  26  5
27  79  8
27  86  8
90  29  5
32  37  5
42  48  6
44  50  8
49  58  8
49  59  8
58  66  8
59  67  8
64  76  8
64  77  8
65  79  8
66  70  8
67  70  8
76  84  8
77  85  8
84  87  8
85  87  8

$$$$
