3113817
  -OEChem-05242006102D

 19 20  0     0  0  0  0  0  0999 V2000
    7.9939   -0.5000    0.0000 S   0  0  0  0  0  0  0  0  0  0  0  0
    4.5981    1.5000    0.0000 O   0  0  0  0  0  0  0  0  0  0  0  0
    2.0000   -0.0000    0.0000 O   0  5  0  0  0  0  0  0  0  0  0  0
    2.8660    1.5000    0.0000 O   0  0  0  0  0  0  0  0  0  0  0  0
    5.4641    0.0000    0.0000 N   0  0  0  0  0  0  0  0  0  0  0  0
    6.4103    0.3047    0.0000 N   0  0  0  0  0  0  0  0  0  0  0  0
    6.4103   -1.3047    0.0000 N   0  0  0  0  0  0  0  0  0  0  0  0
    4.5981   -1.5000    0.0000 N   0  0  0  0  0  0  0  0  0  0  0  0
    3.7320   -1.0000    0.0000 N   0  0  0  0  0  0  0  0  0  0  0  0
    2.8660    0.5000    0.0000 N   0  3  0  0  0  0  0  0  0  0  0  0
    5.4641   -1.0000    0.0000 C   0  0  0  0  0  0  0  0  0  0  0  0
    4.5981    0.5000    0.0000 C   0  0  0  0  0  0  0  0  0  0  0  0
    6.9939   -0.5000    0.0000 C   0  0  0  0  0  0  0  0  0  0  0  0
    3.7320    0.0000    0.0000 C   0  0  0  0  0  0  0  0  0  0  0  0
    8.4939   -1.3660    0.0000 C   0  0  0  0  0  0  0  0  0  0  0  0
    6.6029    0.8941    0.0000 H   0  0  0  0  0  0  0  0  0  0  0  0
    7.9570   -1.6760    0.0000 H   0  0  0  0  0  0  0  0  0  0  0  0
    8.8039   -1.9030    0.0000 H   0  0  0  0  0  0  0  0  0  0  0  0
    9.0309   -1.0560    0.0000 H   0  0  0  0  0  0  0  0  0  0  0  0
  1 13  1  0  0  0  0
  1 15  1  0  0  0  0
  2 12  2  0  0  0  0
  3 10  1  0  0  0  0
  4 10  2  0  0  0  0
  5  6  1  0  0  0  0
  5 11  1  0  0  0  0
  5 12  1  0  0  0  0
  6 13  1  0  0  0  0
  6 16  1  0  0  0  0
  7 11  1  0  0  0  0
  7 13  2  0  0  0  0
  8  9  1  0  0  0  0
  8 11  2  0  0  0  0
  9 14  2  0  0  0  0
 10 14  1  0  0  0  0
 12 14  1  0  0  0  0
 15 17  1  0  0  0  0
 15 18  1  0  0  0  0
 15 19  1  0  0  0  0
M  CHG  2   3  -1  10   1
M  END
> <PUBCHEM_COMPOUND_CID>
3113817

> <PUBCHEM_COMPOUND_CANONICALIZED>
1

> <PUBCHEM_CACTVS_COMPLEXITY>
435

> <PUBCHEM_CACTVS_HBOND_ACCEPTOR>
6

> <PUBCHEM_CACTVS_HBOND_DONOR>
1

> <PUBCHEM_CACTVS_ROTATABLE_BOND>
1

> <PUBCHEM_CACTVS_SUBSKEYS>
AAADcYBjsABAAAAAAAAAAAAAAAAAAQAAAAAgAAAAAAAAAEAAAAAAHgQcAAAAAAABgACDAAJyQAgpAAMwNwAAEAFAAAA3IACAAACAQAAACAAQAAAAAQIAAAAAAAAAAAAAAAAAAAAAAAAAAAAAAAAAAAAAAA==

> <PUBCHEM_IUPAC_OPENEYE_NAME>
7-methylsulfanyl-3-nitro-6H-[1,2,4]triazolo[5,1-c][1,2,4]triazin-4-one

> <PUBCHEM_IUPAC_CAS_NAME>
7-(methylthio)-3-nitro-6H-[1,2,4]triazolo[5,1-c][1,2,4]triazin-4-one

> <PUBCHEM_IUPAC_NAME_MARKUP>
7-methylsulfanyl-3-nitro-6<I>H</I>-[1,2,4]triazolo[5,1-c][1,2,4]triazin-4-one

> <PUBCHEM_IUPAC_NAME>
7-methylsulfanyl-3-nitro-6H-[1,2,4]triazolo[5,1-c][1,2,4]triazin-4-one

> <PUBCHEM_IUPAC_SYSTEMATIC_NAME>
7-methylsulfanyl-3-nitro-6H-[1,2,4]triazolo[5,1-c][1,2,4]triazin-4-one

> <PUBCHEM_IUPAC_TRADITIONAL_NAME>
7-(methylthio)-3-nitro-6H-[1,2,4]triazolo[5,1-c][1,2,4]triazin-4-one

> <PUBCHEM_IUPAC_INCHI>
InChI=1S/C5H4N6O3S/c1-15-5-6-4-8-7-2(11(13)14)3(12)10(4)9-5/h1H3,(H,6,8,9)

> <PUBCHEM_IUPAC_INCHIKEY>
IDVQGNMSSHPZSJ-UHFFFAOYSA-N

> <PUBCHEM_XLOGP3_AA>
0.4

> <PUBCHEM_EXACT_MASS>
228.006559

> <PUBCHEM_MOLECULAR_FORMULA>
C5H4N6O3S

> <PUBCHEM_MOLECULAR_WEIGHT>
228.19

> <PUBCHEM_OPENEYE_CAN_SMILES>
CSC1=NC2=NN=C(C(=O)N2N1)[N+](=O)[O-]

> <PUBCHEM_OPENEYE_ISO_SMILES>
CSC1=NC2=NN=C(C(=O)N2N1)[N+](=O)[O-]

> <PUBCHEM_CACTVS_TPSA>
141

> <PUBCHEM_MONOISOTOPIC_WEIGHT>
228.006559

> <PUBCHEM_TOTAL_CHARGE>
0

> <PUBCHEM_HEAVY_ATOM_COUNT>
15

> <PUBCHEM_ATOM_DEF_STEREO_COUNT>
0

> <PUBCHEM_ATOM_UDEF_STEREO_COUNT>
0

> <PUBCHEM_BOND_DEF_STEREO_COUNT>
0

> <PUBCHEM_BOND_UDEF_STEREO_COUNT>
0

> <PUBCHEM_ISOTOPIC_ATOM_COUNT>
0

> <PUBCHEM_COMPONENT_COUNT>
1

> <PUBCHEM_CACTVS_TAUTO_COUNT>
-1

> <PUBCHEM_COORDINATE_TYPE>
1
5
255

> <PUBCHEM_BONDANNOTATIONS>
12  14  8
5  11  8
5  12  8
5  6  8
6  13  8
7  11  8
7  13  8
8  11  8
8  9  8
9  14  8

$$$$
