3777159
  -OEChem-05242006122D

 20 19  0     0  0  0  0  0  0999 V2000
    3.4030    1.2990    0.0000 O   0  0  0  0  0  0  0  0  0  0  0  0
    5.1350   -0.4330    0.0000 O   0  0  0  0  0  0  0  0  0  0  0  0
    4.9030   -1.2990    0.0000 O   0  0  0  0  0  0  0  0  0  0  0  0
    2.5369   -0.9330    0.0000 N   0  3  0  0  0  0  0  0  0  0  0  0
    3.4030   -0.4330    0.0000 C   0  0  0  0  0  0  0  0  0  0  0  0
    2.9030    0.4330    0.0000 C   0  0  0  0  0  0  0  0  0  0  0  0
    4.2690    0.0670    0.0000 C   0  0  0  0  0  0  0  0  0  0  0  0
    3.9030   -1.2990    0.0000 C   0  0  0  0  0  0  0  0  0  0  0  0
    2.4280    0.8315    0.0000 H   0  0  0  0  0  0  0  0  0  0  0  0
    2.4280    0.0345    0.0000 H   0  0  0  0  0  0  0  0  0  0  0  0
    4.6675    0.5419    0.0000 H   0  0  0  0  0  0  0  0  0  0  0  0
    3.8705    0.5419    0.0000 H   0  0  0  0  0  0  0  0  0  0  0  0
    3.3204   -1.5111    0.0000 H   0  0  0  0  0  0  0  0  0  0  0  0
    4.0106   -1.9096    0.0000 H   0  0  0  0  0  0  0  0  0  0  0  0
    2.0000   -1.2430    0.0000 H   0  0  0  0  0  0  0  0  0  0  0  0
    2.2269   -0.3961    0.0000 H   0  0  0  0  0  0  0  0  0  0  0  0
    2.8469   -1.4700    0.0000 H   0  0  0  0  0  0  0  0  0  0  0  0
    3.0930    1.8360    0.0000 H   0  0  0  0  0  0  0  0  0  0  0  0
    5.6720   -0.1230    0.0000 H   0  0  0  0  0  0  0  0  0  0  0  0
    5.2130   -1.8360    0.0000 H   0  0  0  0  0  0  0  0  0  0  0  0
  1  6  1  0  0  0  0
  1 18  1  0  0  0  0
  2  7  1  0  0  0  0
  2 19  1  0  0  0  0
  3  8  1  0  0  0  0
  3 20  1  0  0  0  0
  4  5  1  0  0  0  0
  4 15  1  0  0  0  0
  4 16  1  0  0  0  0
  4 17  1  0  0  0  0
  5  6  1  0  0  0  0
  5  7  1  0  0  0  0
  5  8  1  0  0  0  0
  6  9  1  0  0  0  0
  6 10  1  0  0  0  0
  7 11  1  0  0  0  0
  7 12  1  0  0  0  0
  8 13  1  0  0  0  0
  8 14  1  0  0  0  0
M  CHG  1   4   1
M  END
> <PUBCHEM_COMPOUND_CID>
3777159

> <PUBCHEM_COMPOUND_CANONICALIZED>
1

> <PUBCHEM_CACTVS_COMPLEXITY>
54

> <PUBCHEM_CACTVS_HBOND_ACCEPTOR>
3

> <PUBCHEM_CACTVS_HBOND_DONOR>
4

> <PUBCHEM_CACTVS_ROTATABLE_BOND>
3

> <PUBCHEM_CACTVS_SUBSKEYS>
AAADccBiMAAAAAAAAAAAAAAAAAAAAAAAAAAAAAAAAAAAAAAAAAAAHgAQCAAADIihgAIAAABAAgAAAAAAAAAAAAAAAAAAAAAAAAACEAAAAAAAQAABEAAAAAAAAAAAAAAAAAAAAAAAAAAAAAAAAAAAAAAAAA==

> <PUBCHEM_IUPAC_OPENEYE_NAME>
[2-hydroxy-1,1-bis(hydroxymethyl)ethyl]ammonium

> <PUBCHEM_IUPAC_CAS_NAME>
[1,3-dihydroxy-2-(hydroxymethyl)propan-2-yl]ammonium

> <PUBCHEM_IUPAC_NAME_MARKUP>
[1,3-dihydroxy-2-(hydroxymethyl)propan-2-yl]azanium

> <PUBCHEM_IUPAC_NAME>
[1,3-dihydroxy-2-(hydroxymethyl)propan-2-yl]azanium

> <PUBCHEM_IUPAC_SYSTEMATIC_NAME>
[2-(hydroxymethyl)-1,3-bis(oxidanyl)propan-2-yl]azanium

> <PUBCHEM_IUPAC_TRADITIONAL_NAME>
(2-hydroxy-1,1-dimethylol-ethyl)ammonium

> <PUBCHEM_IUPAC_INCHI>
InChI=1S/C4H11NO3/c5-4(1-6,2-7)3-8/h6-8H,1-3,5H2/p+1

> <PUBCHEM_IUPAC_INCHIKEY>
LENZDBCJOHFCAS-UHFFFAOYSA-O

> <PUBCHEM_XLOGP3_AA>
-2.9

> <PUBCHEM_EXACT_MASS>
122.081718

> <PUBCHEM_MOLECULAR_FORMULA>
C4H12NO3+

> <PUBCHEM_MOLECULAR_WEIGHT>
122.14

> <PUBCHEM_OPENEYE_CAN_SMILES>
C(C(CO)(CO)[NH3+])O

> <PUBCHEM_OPENEYE_ISO_SMILES>
C(C(CO)(CO)[NH3+])O

> <PUBCHEM_CACTVS_TPSA>
88.3

> <PUBCHEM_MONOISOTOPIC_WEIGHT>
122.081718

> <PUBCHEM_TOTAL_CHARGE>
1

> <PUBCHEM_HEAVY_ATOM_COUNT>
8

> <PUBCHEM_ATOM_DEF_STEREO_COUNT>
0

> <PUBCHEM_ATOM_UDEF_STEREO_COUNT>
0

> <PUBCHEM_BOND_DEF_STEREO_COUNT>
0

> <PUBCHEM_BOND_UDEF_STEREO_COUNT>
0

> <PUBCHEM_ISOTOPIC_ATOM_COUNT>
0

> <PUBCHEM_COMPONENT_COUNT>
1

> <PUBCHEM_CACTVS_TAUTO_COUNT>
-1

> <PUBCHEM_COORDINATE_TYPE>
1
5
255

$$$$
