44137675
  -OEChem-05242006132D

 54 57  0     1  0  0  0  0  0999 V2000
   10.6532    0.2278    0.0000 O   0  0  0  0  0  0  0  0  0  0  0  0
    7.1892   -3.7722    0.0000 O   0  0  0  0  0  0  0  0  0  0  0  0
    2.0000    2.3023    0.0000 O   0  0  0  0  0  0  0  0  0  0  0  0
    2.8486    0.7924    0.0000 O   0  0  0  0  0  0  0  0  0  0  0  0
    8.9212   -0.7722    0.0000 N   0  0  0  0  0  0  0  0  0  0  0  0
    6.3231   -2.2722    0.0000 N   0  0  0  0  0  0  0  0  0  0  0  0
    7.1892   -0.7722    0.0000 N   0  0  0  0  0  0  0  0  0  0  0  0
    4.5806    0.7724    0.0000 N   0  0  0  0  0  0  0  0  0  0  0  0
    5.4292   -0.7375    0.0000 C   0  0  0  0  0  0  0  0  0  0  0  0
    5.4407    0.2624    0.0000 C   0  0  1  0  0  0  0  0  0  0  0  0
    8.9212    0.2278    0.0000 C   0  0  0  0  0  0  0  0  0  0  0  0
    9.7872   -1.2722    0.0000 C   0  0  0  0  0  0  0  0  0  0  0  0
    6.3231   -1.2722    0.0000 C   0  0  0  0  0  0  0  0  0  0  0  0
    8.0552   -1.2722    0.0000 C   0  0  0  0  0  0  0  0  0  0  0  0
    9.7872    0.7278    0.0000 C   0  0  0  0  0  0  0  0  0  0  0  0
   10.6532   -0.7722    0.0000 C   0  0  0  0  0  0  0  0  0  0  0  0
    4.5231   -1.2514    0.0000 C   0  0  0  0  0  0  0  0  0  0  0  0
    4.5231   -2.2930    0.0000 C   0  0  0  0  0  0  0  0  0  0  0  0
    8.0552   -2.2722    0.0000 C   0  0  0  0  0  0  0  0  0  0  0  0
    5.4292   -2.8068    0.0000 C   0  0  0  0  0  0  0  0  0  0  0  0
    7.1892   -2.7722    0.0000 C   0  0  0  0  0  0  0  0  0  0  0  0
    6.3125    0.7524    0.0000 C   0  0  0  0  0  0  0  0  0  0  0  0
    4.5921    1.7723    0.0000 C   0  0  0  0  0  0  0  0  0  0  0  0
    3.6590   -2.7963    0.0000 C   0  0  0  0  0  0  0  0  0  0  0  0
    3.7319    2.2823    0.0000 C   0  0  0  0  0  0  0  0  0  0  0  0
    5.4639    2.2623    0.0000 C   0  0  0  0  0  0  0  0  0  0  0  0
    3.7435    3.2822    0.0000 C   0  0  0  0  0  0  0  0  0  0  0  0
    5.4754    3.2622    0.0000 C   0  0  0  0  0  0  0  0  0  0  0  0
    4.6152    3.7722    0.0000 C   0  0  0  0  0  0  0  0  0  0  0  0
    2.8602    1.7924    0.0000 C   0  0  0  0  0  0  0  0  0  0  0  0
    5.4479    0.8824    0.0000 H   0  0  0  0  0  0  0  0  0  0  0  0
    8.7092    0.8104    0.0000 H   0  0  0  0  0  0  0  0  0  0  0  0
    8.3106    0.1202    0.0000 H   0  0  0  0  0  0  0  0  0  0  0  0
    9.3887   -1.7471    0.0000 H   0  0  0  0  0  0  0  0  0  0  0  0
   10.1858   -1.7471    0.0000 H   0  0  0  0  0  0  0  0  0  0  0  0
   10.1858    1.2028    0.0000 H   0  0  0  0  0  0  0  0  0  0  0  0
    9.3887    1.2028    0.0000 H   0  0  0  0  0  0  0  0  0  0  0  0
   10.8653   -1.3548    0.0000 H   0  0  0  0  0  0  0  0  0  0  0  0
   11.2638   -0.6645    0.0000 H   0  0  0  0  0  0  0  0  0  0  0  0
    3.9874   -0.9393    0.0000 H   0  0  0  0  0  0  0  0  0  0  0  0
    8.5921   -2.5822    0.0000 H   0  0  0  0  0  0  0  0  0  0  0  0
    5.4364   -3.4268    0.0000 H   0  0  0  0  0  0  0  0  0  0  0  0
    4.0401    0.4686    0.0000 H   0  0  0  0  0  0  0  0  0  0  0  0
    6.6163    0.2119    0.0000 H   0  0  0  0  0  0  0  0  0  0  0  0
    6.8530    1.0561    0.0000 H   0  0  0  0  0  0  0  0  0  0  0  0
    6.0087    1.2928    0.0000 H   0  0  0  0  0  0  0  0  0  0  0  0
    3.3470   -2.2606    0.0000 H   0  0  0  0  0  0  0  0  0  0  0  0
    3.1233   -3.1084    0.0000 H   0  0  0  0  0  0  0  0  0  0  0  0
    3.9711   -3.3321    0.0000 H   0  0  0  0  0  0  0  0  0  0  0  0
    5.9972    1.9461    0.0000 H   0  0  0  0  0  0  0  0  0  0  0  0
    3.2102    3.5984    0.0000 H   0  0  0  0  0  0  0  0  0  0  0  0
    6.0159    3.5660    0.0000 H   0  0  0  0  0  0  0  0  0  0  0  0
    4.6224    4.3922    0.0000 H   0  0  0  0  0  0  0  0  0  0  0  0
    2.0072    2.9223    0.0000 H   0  0  0  0  0  0  0  0  0  0  0  0
  1 15  1  0  0  0  0
  1 16  1  0  0  0  0
  2 21  2  0  0  0  0
  3 30  1  0  0  0  0
  3 54  1  0  0  0  0
  4 30  2  0  0  0  0
  5 11  1  0  0  0  0
  5 12  1  0  0  0  0
  5 14  1  0  0  0  0
  6 13  1  0  0  0  0
  6 20  1  0  0  0  0
  6 21  1  0  0  0  0
  7 13  2  0  0  0  0
  7 14  1  0  0  0  0
 10  8  1  6  0  0  0
  8 23  1  0  0  0  0
  8 43  1  0  0  0  0
  9 10  1  0  0  0  0
  9 13  1  0  0  0  0
  9 17  2  0  0  0  0
 10 22  1  0  0  0  0
 10 31  1  0  0  0  0
 11 15  1  0  0  0  0
 11 32  1  0  0  0  0
 11 33  1  0  0  0  0
 12 16  1  0  0  0  0
 12 34  1  0  0  0  0
 12 35  1  0  0  0  0
 14 19  2  0  0  0  0
 15 36  1  0  0  0  0
 15 37  1  0  0  0  0
 16 38  1  0  0  0  0
 16 39  1  0  0  0  0
 17 18  1  0  0  0  0
 17 40  1  0  0  0  0
 18 20  2  0  0  0  0
 18 24  1  0  0  0  0
 19 21  1  0  0  0  0
 19 41  1  0  0  0  0
 20 42  1  0  0  0  0
 22 44  1  0  0  0  0
 22 45  1  0  0  0  0
 22 46  1  0  0  0  0
 23 25  1  0  0  0  0
 23 26  2  0  0  0  0
 24 47  1  0  0  0  0
 24 48  1  0  0  0  0
 24 49  1  0  0  0  0
 25 27  2  0  0  0  0
 25 30  1  0  0  0  0
 26 28  1  0  0  0  0
 26 50  1  0  0  0  0
 27 29  1  0  0  0  0
 27 51  1  0  0  0  0
 28 29  2  0  0  0  0
 28 52  1  0  0  0  0
 29 53  1  0  0  0  0
M  END
> <PUBCHEM_COMPOUND_CID>
44137675

> <PUBCHEM_COMPOUND_CANONICALIZED>
1

> <PUBCHEM_CACTVS_COMPLEXITY>
838

> <PUBCHEM_CACTVS_HBOND_ACCEPTOR>
7

> <PUBCHEM_CACTVS_HBOND_DONOR>
2

> <PUBCHEM_CACTVS_ROTATABLE_BOND>
5

> <PUBCHEM_CACTVS_SUBSKEYS>
AAADceB7uAAAAAAAAAAAAAAAAAAAAAAAAAA8QIEAAAAAAACBAAAAHgAQCAAADCjhmAYzyIPABgCoAif2fACCAAElAgAJiIEobNiKJjrA3ZGHcYhm1gPY2ceYyCCOAAAAAAACAAAAAAAAAAQAAAAAAAAAAA==

> <PUBCHEM_IUPAC_OPENEYE_NAME>
2-[[(1R)-1-(7-methyl-2-morpholino-4-oxo-pyrido[1,2-a]pyrimidin-9-yl)ethyl]amino]benzoic acid

> <PUBCHEM_IUPAC_CAS_NAME>
2-[[(1R)-1-[7-methyl-2-(4-morpholinyl)-4-oxo-9-pyrido[1,2-a]pyrimidinyl]ethyl]amino]benzoic acid

> <PUBCHEM_IUPAC_NAME_MARKUP>
2-[[(1<I>R</I>)-1-(7-methyl-2-morpholin-4-yl-4-oxopyrido[1,2-a]pyrimidin-9-yl)ethyl]amino]benzoic acid

> <PUBCHEM_IUPAC_NAME>
2-[[(1R)-1-(7-methyl-2-morpholin-4-yl-4-oxopyrido[1,2-a]pyrimidin-9-yl)ethyl]amino]benzoic acid

> <PUBCHEM_IUPAC_SYSTEMATIC_NAME>
2-[[(1R)-1-(7-methyl-2-morpholin-4-yl-4-oxidanylidene-pyrido[1,2-a]pyrimidin-9-yl)ethyl]amino]benzoic acid

> <PUBCHEM_IUPAC_TRADITIONAL_NAME>
2-[[(1R)-1-(4-keto-7-methyl-2-morpholino-pyrido[1,2-a]pyrimidin-9-yl)ethyl]amino]benzoic acid

> <PUBCHEM_IUPAC_INCHI>
InChI=1S/C22H24N4O4/c1-14-11-17(15(2)23-18-6-4-3-5-16(18)22(28)29)21-24-19(12-20(27)26(21)13-14)25-7-9-30-10-8-25/h3-6,11-13,15,23H,7-10H2,1-2H3,(H,28,29)/t15-/m1/s1

> <PUBCHEM_IUPAC_INCHIKEY>
IRTDIKMSKMREGO-OAHLLOKOSA-N

> <PUBCHEM_XLOGP3_AA>
2

> <PUBCHEM_EXACT_MASS>
408.179755

> <PUBCHEM_MOLECULAR_FORMULA>
C22H24N4O4

> <PUBCHEM_MOLECULAR_WEIGHT>
408.4

> <PUBCHEM_OPENEYE_CAN_SMILES>
CC1=CN2C(=O)C=C(N=C2C(=C1)C(C)NC3=CC=CC=C3C(=O)O)N4CCOCC4

> <PUBCHEM_OPENEYE_ISO_SMILES>
CC1=CN2C(=O)C=C(N=C2C(=C1)[C@@H](C)NC3=CC=CC=C3C(=O)O)N4CCOCC4

> <PUBCHEM_CACTVS_TPSA>
94.5

> <PUBCHEM_MONOISOTOPIC_WEIGHT>
408.179755

> <PUBCHEM_TOTAL_CHARGE>
0

> <PUBCHEM_HEAVY_ATOM_COUNT>
30

> <PUBCHEM_ATOM_DEF_STEREO_COUNT>
1

> <PUBCHEM_ATOM_UDEF_STEREO_COUNT>
0

> <PUBCHEM_BOND_DEF_STEREO_COUNT>
0

> <PUBCHEM_BOND_UDEF_STEREO_COUNT>
0

> <PUBCHEM_ISOTOPIC_ATOM_COUNT>
0

> <PUBCHEM_COMPONENT_COUNT>
1

> <PUBCHEM_CACTVS_TAUTO_COUNT>
-1

> <PUBCHEM_COORDINATE_TYPE>
1
5
255

> <PUBCHEM_BONDANNOTATIONS>
14  19  8
17  18  8
18  20  8
19  21  8
23  25  8
23  26  8
25  27  8
26  28  8
27  29  8
28  29  8
6  13  8
6  20  8
6  21  8
7  13  8
7  14  8
10  8  6
9  13  8
9  17  8

$$$$
