44286042
  -OEChem-05242006132D

428427  0     1  0  0  0  0  0999 V2000
    4.2690   -9.5000    0.0000 S   0  0  0  0  0  0  0  0  0  0  0  0
   10.2017   -5.5000    0.0000 O   0  0  0  0  0  0  0  0  0  0  0  0
    7.4696   -6.0000    0.0000 O   0  0  0  0  0  0  0  0  0  0  0  0
    4.7376   -5.5000    0.0000 O   0  0  0  0  0  0  0  0  0  0  0  0
    7.4696   -3.0000    0.0000 O   0  0  0  0  0  0  0  0  0  0  0  0
   11.4651    1.5000    0.0000 O   0  0  0  0  0  0  0  0  0  0  0  0
   12.9337   -3.0000    0.0000 O   0  0  0  0  0  0  0  0  0  0  0  0
    6.0010    1.5000    0.0000 O   0  0  0  0  0  0  0  0  0  0  0  0
   14.1972    4.0000    0.0000 O   0  0  0  0  0  0  0  0  0  0  0  0
   18.3978   11.0000    0.0000 O   0  0  0  0  0  0  0  0  0  0  0  0
   19.6613    4.0000    0.0000 O   0  0  0  0  0  0  0  0  0  0  0  0
   22.3933    1.5000    0.0000 O   0  0  0  0  0  0  0  0  0  0  0  0
    8.7331    4.0000    0.0000 O   0  0  0  0  0  0  0  0  0  0  0  0
   21.1299    8.5000    0.0000 O   0  0  0  0  0  0  0  0  0  0  0  0
   16.9292    1.5000    0.0000 O   0  0  0  0  0  0  0  0  0  0  0  0
   15.6658    8.5000    0.0000 O   0  0  0  0  0  0  0  0  0  0  0  0
   15.6658   -5.5000    0.0000 O   0  0  0  0  0  0  0  0  0  0  0  0
    8.7331    0.0000    0.0000 O   0  0  0  0  0  0  0  0  0  0  0  0
   12.9337   11.0000    0.0000 O   0  0  0  0  0  0  0  0  0  0  0  0
    9.5991    1.5000    0.0000 O   0  0  0  0  0  0  0  0  0  0  0  0
   17.7953    6.0000    0.0000 O   0  0  0  0  0  0  0  0  0  0  0  0
   23.7280   13.0000    0.0000 O   0  0  0  0  0  0  0  0  0  0  0  0
   13.7998   -7.5000    0.0000 O   0  0  0  0  0  0  0  0  0  0  0  0
   15.6658   -2.5000    0.0000 O   0  0  0  0  0  0  0  0  0  0  0  0
   16.0632    6.0000    0.0000 O   0  0  0  0  0  0  0  0  0  0  0  0
   21.9959   13.0000    0.0000 O   0  0  0  0  0  0  0  0  0  0  0  0
   12.0677   -7.5000    0.0000 O   0  0  0  0  0  0  0  0  0  0  0  0
   18.3978   -3.0000    0.0000 O   0  0  0  0  0  0  0  0  0  0  0  0
   13.7998    6.5000    0.0000 O   0  0  0  0  0  0  0  0  0  0  0  0
   10.2017    8.5000    0.0000 O   0  0  0  0  0  0  0  0  0  0  0  0
   21.1299   -5.5000    0.0000 O   0  0  0  0  0  0  0  0  0  0  0  0
   12.0677    6.5000    0.0000 O   0  0  0  0  0  0  0  0  0  0  0  0
   20.1299   -6.0000    0.0000 O   0  0  0  0  0  0  0  0  0  0  0  0
   22.3933  -12.5000    0.0000 O   0  0  0  0  0  0  0  0  0  0  0  0
   19.6613  -10.0000    0.0000 O   0  0  0  0  0  0  0  0  0  0  0  0
    9.3356   13.0000    0.0000 O   0  0  0  0  0  0  0  0  0  0  0  0
   11.0677   13.0000    0.0000 O   0  0  0  0  0  0  0  0  0  0  0  0
    7.4696   11.0000    0.0000 O   0  0  0  0  0  0  0  0  0  0  0  0
   16.9292  -12.5000    0.0000 O   0  0  0  0  0  0  0  0  0  0  0  0
   23.2594  -10.0000    0.0000 O   0  0  0  0  0  0  0  0  0  0  0  0
   22.3933   -8.5000    0.0000 O   0  0  0  0  0  0  0  0  0  0  0  0
    3.8716   10.0000    0.0000 O   0  0  0  0  0  0  0  0  0  0  0  0
    4.7376    8.5000    0.0000 O   0  0  0  0  0  0  0  0  0  0  0  0
   14.1972  -10.0000    0.0000 O   0  0  0  0  0  0  0  0  0  0  0  0
    3.8716   13.0000    0.0000 O   0  0  0  0  0  0  0  0  0  0  0  0
    5.6036   13.0000    0.0000 O   0  0  0  0  0  0  0  0  0  0  0  0
   11.4651  -12.5000    0.0000 O   0  0  0  0  0  0  0  0  0  0  0  0
    8.7331  -10.0000    0.0000 O   0  0  0  0  0  0  0  0  0  0  0  0
   11.4651   -8.5000    0.0000 O   0  0  0  0  0  0  0  0  0  0  0  0
   12.3312  -10.0000    0.0000 O   0  0  0  0  0  0  0  0  0  0  0  0
    8.7331  -13.0000    0.0000 O   0  0  0  0  0  0  0  0  0  0  0  0
    6.0010  -12.5000    0.0000 O   0  0  0  0  0  0  0  0  0  0  0  0
   11.9337   -4.5000    0.0000 N   0  0  0  0  0  0  0  0  0  0  0  0
    9.2017   -4.0000    0.0000 N   0  0  0  0  0  0  0  0  0  0  0  0
    6.4696   -4.5000    0.0000 N   0  0  0  0  0  0  0  0  0  0  0  0
    4.2690    2.5000    0.0000 N   0  0  0  0  0  0  0  0  0  0  0  0
   12.4651    3.0000    0.0000 N   0  0  0  0  0  0  0  0  0  0  0  0
    9.7331    2.5000    0.0000 N   0  0  0  0  0  0  0  0  0  0  0  0
   20.6613    2.5000    0.0000 N   0  0  0  0  0  0  0  0  0  0  0  0
   20.1299   10.0000    0.0000 N   0  0  0  0  0  0  0  0  0  0  0  0
   17.9292    3.0000    0.0000 N   0  0  0  0  0  0  0  0  0  0  0  0
   15.1972    2.5000    0.0000 N   0  0  0  0  0  0  0  0  0  0  0  0
   17.3978    9.5000    0.0000 N   0  0  0  0  0  0  0  0  0  0  0  0
    7.0010    3.0000    0.0000 N   0  0  0  0  0  0  0  0  0  0  0  0
   22.8619    9.5000    0.0000 N   0  0  0  0  0  0  0  0  0  0  0  0
   14.6658   -4.0000    0.0000 N   0  0  0  0  0  0  0  0  0  0  0  0
   14.6658   10.0000    0.0000 N   0  0  0  0  0  0  0  0  0  0  0  0
   11.9337    9.5000    0.0000 N   0  0  0  0  0  0  0  0  0  0  0  0
   17.3978   -4.5000    0.0000 N   0  0  0  0  0  0  0  0  0  0  0  0
    2.5369    5.5000    0.0000 N   0  0  0  0  0  0  0  0  0  0  0  0
   12.4651    0.0000    0.0000 N   0  0  0  0  0  0  0  0  0  0  0  0
   24.1254    5.5000    0.0000 N   0  0  0  0  0  0  0  0  0  0  0  0
   21.3933    0.0000    0.0000 N   0  0  0  0  0  0  0  0  0  0  0  0
   20.1299   -4.0000    0.0000 N   0  0  0  0  0  0  0  0  0  0  0  0
   22.8619   -4.5000    0.0000 N   0  0  0  0  0  0  0  0  0  0  0  0
    9.2017   10.0000    0.0000 N   0  0  0  0  0  0  0  0  0  0  0  0
   20.6613  -11.5000    0.0000 N   0  0  0  0  0  0  0  0  0  0  0  0
   17.9292  -11.0000    0.0000 N   0  0  0  0  0  0  0  0  0  0  0  0
    6.4696    9.5000    0.0000 N   0  0  0  0  0  0  0  0  0  0  0  0
   15.1972  -11.5000    0.0000 N   0  0  0  0  0  0  0  0  0  0  0  0
   12.4651  -11.0000    0.0000 N   0  0  0  0  0  0  0  0  0  0  0  0
    9.7331  -11.5000    0.0000 N   0  0  0  0  0  0  0  0  0  0  0  0
    7.0010  -11.0000    0.0000 N   0  0  0  0  0  0  0  0  0  0  0  0
    4.2690  -11.5000    0.0000 N   0  0  0  0  0  0  0  0  0  0  0  0
   11.0677   -3.0000    0.0000 C   0  0  2  0  0  0  0  0  0  0  0  0
   11.0677   -4.0000    0.0000 C   0  0  2  0  0  0  0  0  0  0  0  0
    5.6036   -4.0000    0.0000 C   0  0  2  0  0  0  0  0  0  0  0  0
    8.3356   -4.5000    0.0000 C   0  0  2  0  0  0  0  0  0  0  0  0
    5.6036   -3.0000    0.0000 C   0  0  0  0  0  0  0  0  0  0  0  0
   10.2017   -2.5000    0.0000 C   0  0  0  0  0  0  0  0  0  0  0  0
   10.5991    3.0000    0.0000 C   0  0  2  0  0  0  0  0  0  0  0  0
    5.1350    3.0000    0.0000 C   0  0  2  0  0  0  0  0  0  0  0  0
   10.5991    4.0000    0.0000 C   0  0  0  0  0  0  0  0  0  0  0  0
   10.2017   -4.5000    0.0000 C   0  0  0  0  0  0  0  0  0  0  0  0
   13.3312    2.5000    0.0000 C   0  0  2  0  0  0  0  0  0  0  0  0
   19.2639    9.5000    0.0000 C   0  0  2  0  0  0  0  0  0  0  0  0
   11.9337   -2.5000    0.0000 C   0  0  0  0  0  0  0  0  0  0  0  0
   11.4651    4.5000    0.0000 C   0  0  0  0  0  0  0  0  0  0  0  0
   18.7953    2.5000    0.0000 C   0  0  2  0  0  0  0  0  0  0  0  0
   21.5273    3.0000    0.0000 C   0  0  2  0  0  0  0  0  0  0  0  0
    5.1350    4.0000    0.0000 C   0  0  0  0  0  0  0  0  0  0  0  0
    8.3356   -5.5000    0.0000 C   0  0  2  0  0  0  0  0  0  0  0  0
   13.3312    1.5000    0.0000 C   0  0  0  0  0  0  0  0  0  0  0  0
    4.7376   -4.5000    0.0000 C   0  0  0  0  0  0  0  0  0  0  0  0
   19.2639    8.5000    0.0000 C   0  0  0  0  0  0  0  0  0  0  0  0
    7.4696   -4.0000    0.0000 C   0  0  0  0  0  0  0  0  0  0  0  0
   16.5318   10.0000    0.0000 C   0  0  2  0  0  0  0  0  0  0  0  0
   16.0632    3.0000    0.0000 C   0  0  2  0  0  0  0  0  0  0  0  0
   21.9959   10.0000    0.0000 C   0  0  1  0  0  0  0  0  0  0  0  0
   18.7953    1.5000    0.0000 C   0  0  0  0  0  0  0  0  0  0  0  0
   21.5273    4.0000    0.0000 C   0  0  0  0  0  0  0  0  0  0  0  0
   11.4651    2.5000    0.0000 C   0  0  0  0  0  0  0  0  0  0  0  0
    7.8671    2.5000    0.0000 C   0  0  1  0  0  0  0  0  0  0  0  0
   13.7998   -4.5000    0.0000 C   0  0  1  0  0  0  0  0  0  0  0  0
   16.5318   11.0000    0.0000 C   0  0  0  0  0  0  0  0  0  0  0  0
    4.2690    4.5000    0.0000 C   0  0  0  0  0  0  0  0  0  0  0  0
   14.1972    1.0000    0.0000 C   0  0  0  0  0  0  0  0  0  0  0  0
   12.9337   -4.0000    0.0000 C   0  0  0  0  0  0  0  0  0  0  0  0
    6.0010    2.5000    0.0000 C   0  0  0  0  0  0  0  0  0  0  0  0
   14.1972    3.0000    0.0000 C   0  0  0  0  0  0  0  0  0  0  0  0
    4.7376   -2.5000    0.0000 C   0  0  0  0  0  0  0  0  0  0  0  0
    6.4696   -2.5000    0.0000 C   0  0  0  0  0  0  0  0  0  0  0  0
   10.2017   -1.5000    0.0000 C   0  0  0  0  0  0  0  0  0  0  0  0
   18.3978   10.0000    0.0000 C   0  0  0  0  0  0  0  0  0  0  0  0
   19.6613    3.0000    0.0000 C   0  0  0  0  0  0  0  0  0  0  0  0
   19.6613    1.0000    0.0000 C   0  0  0  0  0  0  0  0  0  0  0  0
   22.3933    4.5000    0.0000 C   0  0  0  0  0  0  0  0  0  0  0  0
   22.3933    2.5000    0.0000 C   0  0  0  0  0  0  0  0  0  0  0  0
    8.7331    3.0000    0.0000 C   0  0  0  0  0  0  0  0  0  0  0  0
   16.0632    4.0000    0.0000 C   0  0  0  0  0  0  0  0  0  0  0  0
   21.1299    9.5000    0.0000 C   0  0  0  0  0  0  0  0  0  0  0  0
   16.9292    2.5000    0.0000 C   0  0  0  0  0  0  0  0  0  0  0  0
   21.9959   11.0000    0.0000 C   0  0  0  0  0  0  0  0  0  0  0  0
   13.7998   -5.5000    0.0000 C   0  0  0  0  0  0  0  0  0  0  0  0
    4.2690    5.5000    0.0000 C   0  0  0  0  0  0  0  0  0  0  0  0
   11.4651    5.5000    0.0000 C   0  0  0  0  0  0  0  0  0  0  0  0
   12.3312    4.0000    0.0000 C   0  0  0  0  0  0  0  0  0  0  0  0
   14.1972    0.0000    0.0000 C   0  0  0  0  0  0  0  0  0  0  0  0
    9.2017   -6.0000    0.0000 C   0  0  0  0  0  0  0  0  0  0  0  0
   20.1299    8.0000    0.0000 C   0  0  0  0  0  0  0  0  0  0  0  0
   18.3978    8.0000    0.0000 C   0  0  0  0  0  0  0  0  0  0  0  0
   15.6658    9.5000    0.0000 C   0  0  0  0  0  0  0  0  0  0  0  0
    7.8671    1.5000    0.0000 C   0  0  0  0  0  0  0  0  0  0  0  0
   19.6613    0.0000    0.0000 C   0  0  0  0  0  0  0  0  0  0  0  0
   22.3933    5.5000    0.0000 C   0  0  0  0  0  0  0  0  0  0  0  0
   15.6658   11.5000    0.0000 C   0  0  0  0  0  0  0  0  0  0  0  0
   17.3978   11.5000    0.0000 C   0  0  0  0  0  0  0  0  0  0  0  0
   13.7998    9.5000    0.0000 C   0  0  2  0  0  0  0  0  0  0  0  0
   16.9292    4.5000    0.0000 C   0  0  0  0  0  0  0  0  0  0  0  0
   22.8619   11.5000    0.0000 C   0  0  0  0  0  0  0  0  0  0  0  0
   12.9337   -6.0000    0.0000 C   0  0  0  0  0  0  0  0  0  0  0  0
    3.4030    6.0000    0.0000 C   0  0  0  0  0  0  0  0  0  0  0  0
   13.3312   -0.5000    0.0000 C   0  0  0  0  0  0  0  0  0  0  0  0
   13.7998    8.5000    0.0000 C   0  0  0  0  0  0  0  0  0  0  0  0
   20.5273   -0.5000    0.0000 C   0  0  0  0  0  0  0  0  0  0  0  0
   23.2594    6.0000    0.0000 C   0  0  0  0  0  0  0  0  0  0  0  0
   15.6658   -4.5000    0.0000 C   0  0  0  0  0  0  0  0  0  0  0  0
   16.5318   -4.0000    0.0000 C   0  0  1  0  0  0  0  0  0  0  0  0
   12.9337   10.0000    0.0000 C   0  0  0  0  0  0  0  0  0  0  0  0
    8.7331    1.0000    0.0000 C   0  0  0  0  0  0  0  0  0  0  0  0
   12.9337    8.0000    0.0000 C   0  0  0  0  0  0  0  0  0  0  0  0
   11.0677   10.0000    0.0000 C   0  0  2  0  0  0  0  0  0  0  0  0
   16.9292    5.5000    0.0000 C   0  0  0  0  0  0  0  0  0  0  0  0
   22.8619   12.5000    0.0000 C   0  0  0  0  0  0  0  0  0  0  0  0
   12.9337   -7.0000    0.0000 C   0  0  0  0  0  0  0  0  0  0  0  0
   16.5318   -3.0000    0.0000 C   0  0  0  0  0  0  0  0  0  0  0  0
   11.0677   11.0000    0.0000 C   0  0  0  0  0  0  0  0  0  0  0  0
   21.9959   -4.0000    0.0000 C   0  0  2  0  0  0  0  0  0  0  0  0
   19.2639   -4.5000    0.0000 C   0  0  1  0  0  0  0  0  0  0  0  0
   21.9959   -3.0000    0.0000 C   0  0  0  0  0  0  0  0  0  0  0  0
   18.3978   -4.0000    0.0000 C   0  0  0  0  0  0  0  0  0  0  0  0
   10.2017    9.5000    0.0000 C   0  0  0  0  0  0  0  0  0  0  0  0
   21.1299   -4.5000    0.0000 C   0  0  0  0  0  0  0  0  0  0  0  0
   10.2017   11.5000    0.0000 C   0  0  0  0  0  0  0  0  0  0  0  0
   12.9337    7.0000    0.0000 C   0  0  0  0  0  0  0  0  0  0  0  0
   21.5273  -11.0000    0.0000 C   0  0  1  0  0  0  0  0  0  0  0  0
   19.2639   -5.5000    0.0000 C   0  0  0  0  0  0  0  0  0  0  0  0
   18.7953  -11.5000    0.0000 C   0  0  2  0  0  0  0  0  0  0  0  0
   22.8619   -2.5000    0.0000 C   0  0  0  0  0  0  0  0  0  0  0  0
   21.1299   -2.5000    0.0000 C   0  0  0  0  0  0  0  0  0  0  0  0
   18.7953  -12.5000    0.0000 C   0  0  0  0  0  0  0  0  0  0  0  0
   22.3933  -11.5000    0.0000 C   0  0  0  0  0  0  0  0  0  0  0  0
    8.3356    9.5000    0.0000 C   0  0  1  0  0  0  0  0  0  0  0  0
   19.6613  -11.0000    0.0000 C   0  0  0  0  0  0  0  0  0  0  0  0
   21.5273  -10.0000    0.0000 C   0  0  0  0  0  0  0  0  0  0  0  0
   10.2017   12.5000    0.0000 C   0  0  0  0  0  0  0  0  0  0  0  0
   19.6613  -13.0000    0.0000 C   0  0  0  0  0  0  0  0  0  0  0  0
   17.9292  -13.0000    0.0000 C   0  0  0  0  0  0  0  0  0  0  0  0
    8.3356    8.5000    0.0000 C   0  0  0  0  0  0  0  0  0  0  0  0
    7.4696   10.0000    0.0000 C   0  0  0  0  0  0  0  0  0  0  0  0
   16.9292  -11.5000    0.0000 C   0  0  0  0  0  0  0  0  0  0  0  0
   16.0632  -11.0000    0.0000 C   0  0  2  0  0  0  0  0  0  0  0  0
   22.3933   -9.5000    0.0000 C   0  0  0  0  0  0  0  0  0  0  0  0
    5.6036   10.0000    0.0000 C   0  0  2  0  0  0  0  0  0  0  0  0
    5.6036   11.0000    0.0000 C   0  0  0  0  0  0  0  0  0  0  0  0
   16.0632  -10.0000    0.0000 C   0  0  0  0  0  0  0  0  0  0  0  0
    4.7376   11.5000    0.0000 C   0  0  0  0  0  0  0  0  0  0  0  0
    4.7376    9.5000    0.0000 C   0  0  0  0  0  0  0  0  0  0  0  0
   14.1972  -11.0000    0.0000 C   0  0  0  0  0  0  0  0  0  0  0  0
   13.3312  -11.5000    0.0000 C   0  0  2  0  0  0  0  0  0  0  0  0
   13.3312  -12.5000    0.0000 C   0  0  0  0  0  0  0  0  0  0  0  0
    4.7376   12.5000    0.0000 C   0  0  0  0  0  0  0  0  0  0  0  0
   10.5991  -11.0000    0.0000 C   0  0  1  0  0  0  0  0  0  0  0  0
   11.4651  -11.5000    0.0000 C   0  0  0  0  0  0  0  0  0  0  0  0
   10.5991  -10.0000    0.0000 C   0  0  0  0  0  0  0  0  0  0  0  0
    8.7331  -11.0000    0.0000 C   0  0  0  0  0  0  0  0  0  0  0  0
    7.8671  -11.5000    0.0000 C   0  0  1  0  0  0  0  0  0  0  0  0
   11.4651   -9.5000    0.0000 C   0  0  0  0  0  0  0  0  0  0  0  0
    7.8671  -12.5000    0.0000 C   0  0  0  0  0  0  0  0  0  0  0  0
    6.0010  -11.5000    0.0000 C   0  0  0  0  0  0  0  0  0  0  0  0
    5.1350  -11.0000    0.0000 C   0  0  1  0  0  0  0  0  0  0  0  0
    5.1350  -10.0000    0.0000 C   0  0  0  0  0  0  0  0  0  0  0  0
   11.0677   -2.3800    0.0000 H   0  0  0  0  0  0  0  0  0  0  0  0
   11.6046   -3.6900    0.0000 H   0  0  0  0  0  0  0  0  0  0  0  0
    6.1405   -3.6900    0.0000 H   0  0  0  0  0  0  0  0  0  0  0  0
    8.8726   -4.8100    0.0000 H   0  0  0  0  0  0  0  0  0  0  0  0
    5.0667   -3.3100    0.0000 H   0  0  0  0  0  0  0  0  0  0  0  0
    9.5911   -2.3923    0.0000 H   0  0  0  0  0  0  0  0  0  0  0  0
    9.9896   -3.0826    0.0000 H   0  0  0  0  0  0  0  0  0  0  0  0
   10.0622    3.3100    0.0000 H   0  0  0  0  0  0  0  0  0  0  0  0
    4.5981    3.3100    0.0000 H   0  0  0  0  0  0  0  0  0  0  0  0
   10.3871    4.5826    0.0000 H   0  0  0  0  0  0  0  0  0  0  0  0
    9.9885    3.8923    0.0000 H   0  0  0  0  0  0  0  0  0  0  0  0
   12.7942    2.1900    0.0000 H   0  0  0  0  0  0  0  0  0  0  0  0
   19.8008    9.1900    0.0000 H   0  0  0  0  0  0  0  0  0  0  0  0
   12.4707   -4.8100    0.0000 H   0  0  0  0  0  0  0  0  0  0  0  0
   12.2437   -3.0369    0.0000 H   0  0  0  0  0  0  0  0  0  0  0  0
   12.4707   -2.1900    0.0000 H   0  0  0  0  0  0  0  0  0  0  0  0
   11.6237   -1.9631    0.0000 H   0  0  0  0  0  0  0  0  0  0  0  0
   12.0021    4.8100    0.0000 H   0  0  0  0  0  0  0  0  0  0  0  0
    9.7386   -3.6900    0.0000 H   0  0  0  0  0  0  0  0  0  0  0  0
   18.2583    2.1900    0.0000 H   0  0  0  0  0  0  0  0  0  0  0  0
   20.9904    3.3100    0.0000 H   0  0  0  0  0  0  0  0  0  0  0  0
    5.7456    3.8923    0.0000 H   0  0  0  0  0  0  0  0  0  0  0  0
    5.3471    4.5826    0.0000 H   0  0  0  0  0  0  0  0  0  0  0  0
    7.0066   -4.8100    0.0000 H   0  0  0  0  0  0  0  0  0  0  0  0
    7.7987   -5.1900    0.0000 H   0  0  0  0  0  0  0  0  0  0  0  0
   12.7206    1.6077    0.0000 H   0  0  0  0  0  0  0  0  0  0  0  0
   13.1191    0.9174    0.0000 H   0  0  0  0  0  0  0  0  0  0  0  0
   19.2639    7.8800    0.0000 H   0  0  0  0  0  0  0  0  0  0  0  0
   16.5318    9.3800    0.0000 H   0  0  0  0  0  0  0  0  0  0  0  0
   15.5263    3.3100    0.0000 H   0  0  0  0  0  0  0  0  0  0  0  0
    4.8059    2.1900    0.0000 H   0  0  0  0  0  0  0  0  0  0  0  0
   22.5328   10.3100    0.0000 H   0  0  0  0  0  0  0  0  0  0  0  0
   18.1847    1.6077    0.0000 H   0  0  0  0  0  0  0  0  0  0  0  0
   18.5832    0.9174    0.0000 H   0  0  0  0  0  0  0  0  0  0  0  0
   21.3153    4.5826    0.0000 H   0  0  0  0  0  0  0  0  0  0  0  0
   20.9167    3.8923    0.0000 H   0  0  0  0  0  0  0  0  0  0  0  0
    7.3301    2.1900    0.0000 H   0  0  0  0  0  0  0  0  0  0  0  0
   13.0021    3.3100    0.0000 H   0  0  0  0  0  0  0  0  0  0  0  0
   14.3367   -4.8100    0.0000 H   0  0  0  0  0  0  0  0  0  0  0  0
   16.5318   11.6200    0.0000 H   0  0  0  0  0  0  0  0  0  0  0  0
    3.6584    4.6077    0.0000 H   0  0  0  0  0  0  0  0  0  0  0  0
    4.0569    3.9174    0.0000 H   0  0  0  0  0  0  0  0  0  0  0  0
   10.2700    2.1900    0.0000 H   0  0  0  0  0  0  0  0  0  0  0  0
   14.8078    0.8923    0.0000 H   0  0  0  0  0  0  0  0  0  0  0  0
   14.4092    1.5826    0.0000 H   0  0  0  0  0  0  0  0  0  0  0  0
    5.0476   -1.9631    0.0000 H   0  0  0  0  0  0  0  0  0  0  0  0
    4.2006   -2.1900    0.0000 H   0  0  0  0  0  0  0  0  0  0  0  0
    4.4276   -3.0369    0.0000 H   0  0  0  0  0  0  0  0  0  0  0  0
    6.7796   -3.0369    0.0000 H   0  0  0  0  0  0  0  0  0  0  0  0
    7.0066   -2.1900    0.0000 H   0  0  0  0  0  0  0  0  0  0  0  0
    6.1596   -1.9631    0.0000 H   0  0  0  0  0  0  0  0  0  0  0  0
   10.8217   -1.5000    0.0000 H   0  0  0  0  0  0  0  0  0  0  0  0
   10.2017   -0.8800    0.0000 H   0  0  0  0  0  0  0  0  0  0  0  0
    9.5817   -1.5000    0.0000 H   0  0  0  0  0  0  0  0  0  0  0  0
   21.1982    2.1900    0.0000 H   0  0  0  0  0  0  0  0  0  0  0  0
   20.6668   10.3100    0.0000 H   0  0  0  0  0  0  0  0  0  0  0  0
   20.2719    0.8923    0.0000 H   0  0  0  0  0  0  0  0  0  0  0  0
   19.8733    1.5826    0.0000 H   0  0  0  0  0  0  0  0  0  0  0  0
   22.6054    3.9174    0.0000 H   0  0  0  0  0  0  0  0  0  0  0  0
   23.0039    4.6077    0.0000 H   0  0  0  0  0  0  0  0  0  0  0  0
   18.4662    3.3100    0.0000 H   0  0  0  0  0  0  0  0  0  0  0  0
   15.7341    2.1900    0.0000 H   0  0  0  0  0  0  0  0  0  0  0  0
   17.9348    9.1900    0.0000 H   0  0  0  0  0  0  0  0  0  0  0  0
   15.8512    4.5826    0.0000 H   0  0  0  0  0  0  0  0  0  0  0  0
   15.4526    3.8923    0.0000 H   0  0  0  0  0  0  0  0  0  0  0  0
    7.5380    3.3100    0.0000 H   0  0  0  0  0  0  0  0  0  0  0  0
   21.7839   11.5826    0.0000 H   0  0  0  0  0  0  0  0  0  0  0  0
   21.3853   10.8923    0.0000 H   0  0  0  0  0  0  0  0  0  0  0  0
   23.3989    9.1900    0.0000 H   0  0  0  0  0  0  0  0  0  0  0  0
   14.0118   -6.0826    0.0000 H   0  0  0  0  0  0  0  0  0  0  0  0
   14.4103   -5.3923    0.0000 H   0  0  0  0  0  0  0  0  0  0  0  0
    4.8796    5.3923    0.0000 H   0  0  0  0  0  0  0  0  0  0  0  0
    4.4810    6.0826    0.0000 H   0  0  0  0  0  0  0  0  0  0  0  0
   12.0851    5.5000    0.0000 H   0  0  0  0  0  0  0  0  0  0  0  0
   11.4651    6.1200    0.0000 H   0  0  0  0  0  0  0  0  0  0  0  0
   10.8451    5.5000    0.0000 H   0  0  0  0  0  0  0  0  0  0  0  0
   12.0212    3.4631    0.0000 H   0  0  0  0  0  0  0  0  0  0  0  0
   12.8681    3.6900    0.0000 H   0  0  0  0  0  0  0  0  0  0  0  0
   12.6412    4.5369    0.0000 H   0  0  0  0  0  0  0  0  0  0  0  0
   14.4092   -0.5826    0.0000 H   0  0  0  0  0  0  0  0  0  0  0  0
   14.8078    0.1077    0.0000 H   0  0  0  0  0  0  0  0  0  0  0  0
    8.8917   -6.5369    0.0000 H   0  0  0  0  0  0  0  0  0  0  0  0
    9.7386   -6.3100    0.0000 H   0  0  0  0  0  0  0  0  0  0  0  0
    9.5117   -5.4631    0.0000 H   0  0  0  0  0  0  0  0  0  0  0  0
   19.8199    7.4631    0.0000 H   0  0  0  0  0  0  0  0  0  0  0  0
   20.6668    7.6900    0.0000 H   0  0  0  0  0  0  0  0  0  0  0  0
   20.4399    8.5369    0.0000 H   0  0  0  0  0  0  0  0  0  0  0  0
   18.0878    8.5369    0.0000 H   0  0  0  0  0  0  0  0  0  0  0  0
   17.8609    7.6900    0.0000 H   0  0  0  0  0  0  0  0  0  0  0  0
   18.7078    7.4631    0.0000 H   0  0  0  0  0  0  0  0  0  0  0  0
    7.2565    1.6077    0.0000 H   0  0  0  0  0  0  0  0  0  0  0  0
    7.6550    0.9174    0.0000 H   0  0  0  0  0  0  0  0  0  0  0  0
   19.0507    0.1077    0.0000 H   0  0  0  0  0  0  0  0  0  0  0  0
   19.4492   -0.5826    0.0000 H   0  0  0  0  0  0  0  0  0  0  0  0
   22.1813    6.0826    0.0000 H   0  0  0  0  0  0  0  0  0  0  0  0
   21.7828    5.3923    0.0000 H   0  0  0  0  0  0  0  0  0  0  0  0
   15.9758   12.0369    0.0000 H   0  0  0  0  0  0  0  0  0  0  0  0
   15.1288   11.8100    0.0000 H   0  0  0  0  0  0  0  0  0  0  0  0
   15.3558   10.9631    0.0000 H   0  0  0  0  0  0  0  0  0  0  0  0
   17.7078   10.9631    0.0000 H   0  0  0  0  0  0  0  0  0  0  0  0
   17.9348   11.8100    0.0000 H   0  0  0  0  0  0  0  0  0  0  0  0
   17.0878   12.0369    0.0000 H   0  0  0  0  0  0  0  0  0  0  0  0
   15.2027   -3.6900    0.0000 H   0  0  0  0  0  0  0  0  0  0  0  0
   14.3367    9.1900    0.0000 H   0  0  0  0  0  0  0  0  0  0  0  0
   17.1413    3.9174    0.0000 H   0  0  0  0  0  0  0  0  0  0  0  0
   17.5398    4.6077    0.0000 H   0  0  0  0  0  0  0  0  0  0  0  0
   23.0740   10.9174    0.0000 H   0  0  0  0  0  0  0  0  0  0  0  0
   23.4725   11.6077    0.0000 H   0  0  0  0  0  0  0  0  0  0  0  0
   15.2027   10.3100    0.0000 H   0  0  0  0  0  0  0  0  0  0  0  0
   12.7217   -5.4174    0.0000 H   0  0  0  0  0  0  0  0  0  0  0  0
   12.3231   -6.1077    0.0000 H   0  0  0  0  0  0  0  0  0  0  0  0
    3.8015    6.4750    0.0000 H   0  0  0  0  0  0  0  0  0  0  0  0
    3.0044    6.4750    0.0000 H   0  0  0  0  0  0  0  0  0  0  0  0
   12.9326   -0.9749    0.0000 H   0  0  0  0  0  0  0  0  0  0  0  0
   13.7297   -0.9749    0.0000 H   0  0  0  0  0  0  0  0  0  0  0  0
    7.4696   -6.6200    0.0000 H   0  0  0  0  0  0  0  0  0  0  0  0
   14.0118    7.9174    0.0000 H   0  0  0  0  0  0  0  0  0  0  0  0
   14.4103    8.6077    0.0000 H   0  0  0  0  0  0  0  0  0  0  0  0
   23.6579    6.4750    0.0000 H   0  0  0  0  0  0  0  0  0  0  0  0
   22.8608    6.4750    0.0000 H   0  0  0  0  0  0  0  0  0  0  0  0
   20.1288   -0.9749    0.0000 H   0  0  0  0  0  0  0  0  0  0  0  0
   20.9258   -0.9749    0.0000 H   0  0  0  0  0  0  0  0  0  0  0  0
   16.5318   -4.6200    0.0000 H   0  0  0  0  0  0  0  0  0  0  0  0
   12.7217    8.5826    0.0000 H   0  0  0  0  0  0  0  0  0  0  0  0
   12.3231    7.8923    0.0000 H   0  0  0  0  0  0  0  0  0  0  0  0
   11.6046   10.3100    0.0000 H   0  0  0  0  0  0  0  0  0  0  0  0
   12.4707    9.1900    0.0000 H   0  0  0  0  0  0  0  0  0  0  0  0
   17.1424   -3.1077    0.0000 H   0  0  0  0  0  0  0  0  0  0  0  0
   16.7439   -2.4174    0.0000 H   0  0  0  0  0  0  0  0  0  0  0  0
   17.9348   -4.8100    0.0000 H   0  0  0  0  0  0  0  0  0  0  0  0
    2.0000    5.8100    0.0000 H   0  0  0  0  0  0  0  0  0  0  0  0
    2.5369    4.8800    0.0000 H   0  0  0  0  0  0  0  0  0  0  0  0
   11.9282   -0.3100    0.0000 H   0  0  0  0  0  0  0  0  0  0  0  0
   12.4651    0.6200    0.0000 H   0  0  0  0  0  0  0  0  0  0  0  0
   11.6783   10.8923    0.0000 H   0  0  0  0  0  0  0  0  0  0  0  0
   11.2798   11.5826    0.0000 H   0  0  0  0  0  0  0  0  0  0  0  0
   22.5328   -3.6900    0.0000 H   0  0  0  0  0  0  0  0  0  0  0  0
   24.6623    5.8100    0.0000 H   0  0  0  0  0  0  0  0  0  0  0  0
   24.1254    4.8800    0.0000 H   0  0  0  0  0  0  0  0  0  0  0  0
   21.9303   -0.3100    0.0000 H   0  0  0  0  0  0  0  0  0  0  0  0
   21.3933    0.6200    0.0000 H   0  0  0  0  0  0  0  0  0  0  0  0
   19.8008   -4.8100    0.0000 H   0  0  0  0  0  0  0  0  0  0  0  0
   21.4590   -3.3100    0.0000 H   0  0  0  0  0  0  0  0  0  0  0  0
   20.6668   -3.6900    0.0000 H   0  0  0  0  0  0  0  0  0  0  0  0
    9.5911   11.6077    0.0000 H   0  0  0  0  0  0  0  0  0  0  0  0
    9.9896   10.9174    0.0000 H   0  0  0  0  0  0  0  0  0  0  0  0
   23.3989   -4.8100    0.0000 H   0  0  0  0  0  0  0  0  0  0  0  0
    8.1962   -0.3100    0.0000 H   0  0  0  0  0  0  0  0  0  0  0  0
   20.9904  -10.6900    0.0000 H   0  0  0  0  0  0  0  0  0  0  0  0
   18.6533   -5.3923    0.0000 H   0  0  0  0  0  0  0  0  0  0  0  0
   19.0518   -6.0826    0.0000 H   0  0  0  0  0  0  0  0  0  0  0  0
   18.2583  -11.8100    0.0000 H   0  0  0  0  0  0  0  0  0  0  0  0
   23.1719   -3.0369    0.0000 H   0  0  0  0  0  0  0  0  0  0  0  0
   23.3989   -2.1900    0.0000 H   0  0  0  0  0  0  0  0  0  0  0  0
   22.5519   -1.9631    0.0000 H   0  0  0  0  0  0  0  0  0  0  0  0
   21.4399   -1.9631    0.0000 H   0  0  0  0  0  0  0  0  0  0  0  0
   20.5929   -2.1900    0.0000 H   0  0  0  0  0  0  0  0  0  0  0  0
   20.8199   -3.0369    0.0000 H   0  0  0  0  0  0  0  0  0  0  0  0
    9.7386   10.3100    0.0000 H   0  0  0  0  0  0  0  0  0  0  0  0
   18.7953  -13.1200    0.0000 H   0  0  0  0  0  0  0  0  0  0  0  0
   18.3322    5.6900    0.0000 H   0  0  0  0  0  0  0  0  0  0  0  0
   23.7280   13.6200    0.0000 H   0  0  0  0  0  0  0  0  0  0  0  0
    8.8726    9.1900    0.0000 H   0  0  0  0  0  0  0  0  0  0  0  0
   14.3367   -7.1900    0.0000 H   0  0  0  0  0  0  0  0  0  0  0  0
   15.6658   -1.8800    0.0000 H   0  0  0  0  0  0  0  0  0  0  0  0
   21.1982  -11.8100    0.0000 H   0  0  0  0  0  0  0  0  0  0  0  0
   21.3153   -9.4174    0.0000 H   0  0  0  0  0  0  0  0  0  0  0  0
   20.9167  -10.1077    0.0000 H   0  0  0  0  0  0  0  0  0  0  0  0
   18.4662  -10.6900    0.0000 H   0  0  0  0  0  0  0  0  0  0  0  0
   19.3513  -13.5369    0.0000 H   0  0  0  0  0  0  0  0  0  0  0  0
   20.1982  -13.3100    0.0000 H   0  0  0  0  0  0  0  0  0  0  0  0
   19.9713  -12.4631    0.0000 H   0  0  0  0  0  0  0  0  0  0  0  0
   17.6192  -12.4631    0.0000 H   0  0  0  0  0  0  0  0  0  0  0  0
   17.3923  -13.3100    0.0000 H   0  0  0  0  0  0  0  0  0  0  0  0
   18.2392  -13.5369    0.0000 H   0  0  0  0  0  0  0  0  0  0  0  0
    7.7156    8.5000    0.0000 H   0  0  0  0  0  0  0  0  0  0  0  0
    8.3356    7.8800    0.0000 H   0  0  0  0  0  0  0  0  0  0  0  0
    8.9556    8.5000    0.0000 H   0  0  0  0  0  0  0  0  0  0  0  0
   14.3367    6.8100    0.0000 H   0  0  0  0  0  0  0  0  0  0  0  0
   20.1299   -6.6200    0.0000 H   0  0  0  0  0  0  0  0  0  0  0  0
   15.5263  -10.6900    0.0000 H   0  0  0  0  0  0  0  0  0  0  0  0
    7.0066    9.1900    0.0000 H   0  0  0  0  0  0  0  0  0  0  0  0
    6.1405   10.3100    0.0000 H   0  0  0  0  0  0  0  0  0  0  0  0
    6.2142   10.8923    0.0000 H   0  0  0  0  0  0  0  0  0  0  0  0
    5.8157   11.5826    0.0000 H   0  0  0  0  0  0  0  0  0  0  0  0
    9.3356   13.6200    0.0000 H   0  0  0  0  0  0  0  0  0  0  0  0
   16.6832  -10.0000    0.0000 H   0  0  0  0  0  0  0  0  0  0  0  0
   16.0632   -9.3800    0.0000 H   0  0  0  0  0  0  0  0  0  0  0  0
   15.4432  -10.0000    0.0000 H   0  0  0  0  0  0  0  0  0  0  0  0
   15.7341  -11.8100    0.0000 H   0  0  0  0  0  0  0  0  0  0  0  0
    4.1270   11.6077    0.0000 H   0  0  0  0  0  0  0  0  0  0  0  0
    4.5255   10.9174    0.0000 H   0  0  0  0  0  0  0  0  0  0  0  0
   12.7942  -11.8100    0.0000 H   0  0  0  0  0  0  0  0  0  0  0  0
   23.7963   -9.6900    0.0000 H   0  0  0  0  0  0  0  0  0  0  0  0
   13.0021  -10.6900    0.0000 H   0  0  0  0  0  0  0  0  0  0  0  0
   12.7112  -12.5000    0.0000 H   0  0  0  0  0  0  0  0  0  0  0  0
   13.3312  -13.1200    0.0000 H   0  0  0  0  0  0  0  0  0  0  0  0
   13.9512  -12.5000    0.0000 H   0  0  0  0  0  0  0  0  0  0  0  0
   10.0622  -10.6900    0.0000 H   0  0  0  0  0  0  0  0  0  0  0  0
    3.3346    9.6900    0.0000 H   0  0  0  0  0  0  0  0  0  0  0  0
   10.3871   -9.4174    0.0000 H   0  0  0  0  0  0  0  0  0  0  0  0
    9.9885  -10.1077    0.0000 H   0  0  0  0  0  0  0  0  0  0  0  0
   10.2700  -11.8100    0.0000 H   0  0  0  0  0  0  0  0  0  0  0  0
    3.8716   13.6200    0.0000 H   0  0  0  0  0  0  0  0  0  0  0  0
    7.8671  -10.8800    0.0000 H   0  0  0  0  0  0  0  0  0  0  0  0
    7.2565  -12.3923    0.0000 H   0  0  0  0  0  0  0  0  0  0  0  0
    7.6550  -13.0826    0.0000 H   0  0  0  0  0  0  0  0  0  0  0  0
    7.5380  -10.6900    0.0000 H   0  0  0  0  0  0  0  0  0  0  0  0
    4.5981  -10.6900    0.0000 H   0  0  0  0  0  0  0  0  0  0  0  0
   10.9282   -8.1900    0.0000 H   0  0  0  0  0  0  0  0  0  0  0  0
    8.7331  -13.6200    0.0000 H   0  0  0  0  0  0  0  0  0  0  0  0
    5.7456  -10.1077    0.0000 H   0  0  0  0  0  0  0  0  0  0  0  0
    5.3471   -9.4174    0.0000 H   0  0  0  0  0  0  0  0  0  0  0  0
    4.2690  -12.1200    0.0000 H   0  0  0  0  0  0  0  0  0  0  0  0
    4.8059  -11.1900    0.0000 H   0  0  0  0  0  0  0  0  0  0  0  0
    4.2690   -8.8800    0.0000 H   0  0  0  0  0  0  0  0  0  0  0  0
  1212  1  0  0  0  0
  1428  1  0  0  0  0
  2 94  2  0  0  0  0
102  3  1  6  0  0  0
  3328  1  0  0  0  0
  4104  2  0  0  0  0
  5106  2  0  0  0  0
  6112  2  0  0  0  0
  7118  2  0  0  0  0
  8119  2  0  0  0  0
  9120  2  0  0  0  0
 10124  2  0  0  0  0
 11125  2  0  0  0  0
 12128  2  0  0  0  0
 13129  2  0  0  0  0
 14131  2  0  0  0  0
 15132  2  0  0  0  0
 16142  2  0  0  0  0
 17157  2  0  0  0  0
 18160  1  0  0  0  0
 18360  1  0  0  0  0
 19159  2  0  0  0  0
 20160  2  0  0  0  0
 21163  1  0  0  0  0
 21373  1  0  0  0  0
 22164  1  0  0  0  0
 22374  1  0  0  0  0
 23165  1  0  0  0  0
 23376  1  0  0  0  0
 24166  1  0  0  0  0
 24377  1  0  0  0  0
 25163  2  0  0  0  0
 26164  2  0  0  0  0
 27165  2  0  0  0  0
 28171  2  0  0  0  0
 29175  1  0  0  0  0
 29391  1  0  0  0  0
 30172  2  0  0  0  0
 31173  2  0  0  0  0
 32175  2  0  0  0  0
 33177  1  0  0  0  0
 33392  1  0  0  0  0
 34182  2  0  0  0  0
 35184  2  0  0  0  0
 36186  1  0  0  0  0
 36398  1  0  0  0  0
 37186  2  0  0  0  0
 38190  2  0  0  0  0
 39191  2  0  0  0  0
 40193  1  0  0  0  0
 40406  1  0  0  0  0
 41193  2  0  0  0  0
 42198  1  0  0  0  0
 42412  1  0  0  0  0
 43198  2  0  0  0  0
 44199  2  0  0  0  0
 45202  1  0  0  0  0
 45416  1  0  0  0  0
 46202  2  0  0  0  0
 47204  2  0  0  0  0
 48206  2  0  0  0  0
 49208  1  0  0  0  0
 49422  1  0  0  0  0
 50208  2  0  0  0  0
 51209  1  0  0  0  0
 51423  1  0  0  0  0
 52210  2  0  0  0  0
 86 53  1  1  0  0  0
 53118  1  0  0  0  0
 53226  1  0  0  0  0
 88 54  1  6  0  0  0
 54 94  1  0  0  0  0
 54231  1  0  0  0  0
 87 55  1  1  0  0  0
 55106  1  0  0  0  0
 55236  1  0  0  0  0
 92 56  1  6  0  0  0
 56104  1  0  0  0  0
 56243  1  0  0  0  0
 95 57  1  1  0  0  0
 57112  1  0  0  0  0
 57250  1  0  0  0  0
 91 58  1  6  0  0  0
 58129  1  0  0  0  0
 58255  1  0  0  0  0
100 59  1  6  0  0  0
 59125  1  0  0  0  0
 59267  1  0  0  0  0
 96 60  1  6  0  0  0
 60131  1  0  0  0  0
 60268  1  0  0  0  0
 99 61  1  1  0  0  0
 61132  1  0  0  0  0
 61273  1  0  0  0  0
108 62  1  6  0  0  0
 62120  1  0  0  0  0
 62274  1  0  0  0  0
107 63  1  1  0  0  0
 63124  1  0  0  0  0
 63275  1  0  0  0  0
113 64  1  1  0  0  0
 64119  1  0  0  0  0
 64278  1  0  0  0  0
109 65  1  1  0  0  0
 65128  1  0  0  0  0
 65281  1  0  0  0  0
114 66  1  6  0  0  0
 66157  1  0  0  0  0
 66315  1  0  0  0  0
 67142  1  0  0  0  0
148 67  1  6  0  0  0
 67321  1  0  0  0  0
 68159  1  0  0  0  0
162 68  1  1  0  0  0
 68339  1  0  0  0  0
158 69  1  1  0  0  0
 69171  1  0  0  0  0
 69342  1  0  0  0  0
 70152  1  0  0  0  0
 70343  1  0  0  0  0
 70344  1  0  0  0  0
 71153  1  0  0  0  0
 71345  1  0  0  0  0
 71346  1  0  0  0  0
 72156  1  0  0  0  0
 72350  1  0  0  0  0
 72351  1  0  0  0  0
 73155  1  0  0  0  0
 73352  1  0  0  0  0
 73353  1  0  0  0  0
169 74  1  6  0  0  0
 74173  1  0  0  0  0
 74356  1  0  0  0  0
168 75  1  1  0  0  0
 75182  1  0  0  0  0
 75359  1  0  0  0  0
 76172  1  0  0  0  0
183 76  1  1  0  0  0
 76371  1  0  0  0  0
176 77  1  6  0  0  0
 77184  1  0  0  0  0
 77378  1  0  0  0  0
178 78  1  1  0  0  0
 78191  1  0  0  0  0
 78381  1  0  0  0  0
 79190  1  0  0  0  0
194 79  1  1  0  0  0
 79394  1  0  0  0  0
192 80  1  1  0  0  0
 80199  1  0  0  0  0
 80402  1  0  0  0  0
200 81  1  6  0  0  0
 81204  1  0  0  0  0
 81407  1  0  0  0  0
203 82  1  6  0  0  0
 82206  1  0  0  0  0
 82415  1  0  0  0  0
207 83  1  1  0  0  0
 83210  1  0  0  0  0
 83420  1  0  0  0  0
211 84  1  6  0  0  0
 84426  1  0  0  0  0
 84427  1  0  0  0  0
 85 86  1  0  0  0  0
 85 90  1  0  0  0  0
 85 97  1  6  0  0  0
 85213  1  0  0  0  0
 86 94  1  0  0  0  0
 86214  1  0  0  0  0
 87 89  1  0  0  0  0
 87104  1  0  0  0  0
 87215  1  0  0  0  0
 88102  1  0  0  0  0
 88106  1  0  0  0  0
 88216  1  0  0  0  0
 89121  1  0  0  0  0
 89122  1  0  0  0  0
 89217  1  0  0  0  0
 90123  1  0  0  0  0
 90218  1  0  0  0  0
 90219  1  0  0  0  0
 91 93  1  0  0  0  0
 91112  1  0  0  0  0
 91220  1  0  0  0  0
 92101  1  0  0  0  0
 92119  1  0  0  0  0
 92221  1  0  0  0  0
 93 98  1  0  0  0  0
 93222  1  0  0  0  0
 93223  1  0  0  0  0
 95103  1  0  0  0  0
 95120  1  0  0  0  0
 95224  1  0  0  0  0
 96105  1  0  0  0  0
 96124  1  0  0  0  0
 96225  1  0  0  0  0
 97227  1  0  0  0  0
 97228  1  0  0  0  0
 97229  1  0  0  0  0
 98136  1  0  0  0  0
 98137  1  0  0  0  0
 98230  1  0  0  0  0
 99110  1  0  0  0  0
 99125  1  0  0  0  0
 99232  1  0  0  0  0
100111  1  0  0  0  0
100128  1  0  0  0  0
100233  1  0  0  0  0
101116  1  0  0  0  0
101234  1  0  0  0  0
101235  1  0  0  0  0
102139  1  0  0  0  0
102237  1  0  0  0  0
103117  1  0  0  0  0
103238  1  0  0  0  0
103239  1  0  0  0  0
105140  1  0  0  0  0
105141  1  0  0  0  0
105240  1  0  0  0  0
107115  1  0  0  0  0
107142  1  0  0  0  0
107241  1  0  0  0  0
108130  1  0  0  0  0
108132  1  0  0  0  0
108242  1  0  0  0  0
109131  1  0  0  0  0
109133  1  0  0  0  0
109244  1  0  0  0  0
110126  1  0  0  0  0
110245  1  0  0  0  0
110246  1  0  0  0  0
111127  1  0  0  0  0
111247  1  0  0  0  0
111248  1  0  0  0  0
113129  1  0  0  0  0
113143  1  0  0  0  0
113249  1  0  0  0  0
114118  1  0  0  0  0
114134  1  0  0  0  0
114251  1  0  0  0  0
115146  1  0  0  0  0
115147  1  0  0  0  0
115252  1  0  0  0  0
116135  1  0  0  0  0
116253  1  0  0  0  0
116254  1  0  0  0  0
117138  1  0  0  0  0
117256  1  0  0  0  0
117257  1  0  0  0  0
121258  1  0  0  0  0
121259  1  0  0  0  0
121260  1  0  0  0  0
122261  1  0  0  0  0
122262  1  0  0  0  0
122263  1  0  0  0  0
123264  1  0  0  0  0
123265  1  0  0  0  0
123266  1  0  0  0  0
126144  1  0  0  0  0
126269  1  0  0  0  0
126270  1  0  0  0  0
127145  1  0  0  0  0
127271  1  0  0  0  0
127272  1  0  0  0  0
130149  1  0  0  0  0
130276  1  0  0  0  0
130277  1  0  0  0  0
133150  1  0  0  0  0
133279  1  0  0  0  0
133280  1  0  0  0  0
134151  1  0  0  0  0
134282  1  0  0  0  0
134283  1  0  0  0  0
135152  1  0  0  0  0
135284  1  0  0  0  0
135285  1  0  0  0  0
136286  1  0  0  0  0
136287  1  0  0  0  0
136288  1  0  0  0  0
137289  1  0  0  0  0
137290  1  0  0  0  0
137291  1  0  0  0  0
138153  1  0  0  0  0
138292  1  0  0  0  0
138293  1  0  0  0  0
139294  1  0  0  0  0
139295  1  0  0  0  0
139296  1  0  0  0  0
140297  1  0  0  0  0
140298  1  0  0  0  0
140299  1  0  0  0  0
141300  1  0  0  0  0
141301  1  0  0  0  0
141302  1  0  0  0  0
143160  1  0  0  0  0
143303  1  0  0  0  0
143304  1  0  0  0  0
144155  1  0  0  0  0
144305  1  0  0  0  0
144306  1  0  0  0  0
145156  1  0  0  0  0
145307  1  0  0  0  0
145308  1  0  0  0  0
146309  1  0  0  0  0
146310  1  0  0  0  0
146311  1  0  0  0  0
147312  1  0  0  0  0
147313  1  0  0  0  0
147314  1  0  0  0  0
148154  1  0  0  0  0
148159  1  0  0  0  0
148316  1  0  0  0  0
149163  1  0  0  0  0
149317  1  0  0  0  0
149318  1  0  0  0  0
150164  1  0  0  0  0
150319  1  0  0  0  0
150320  1  0  0  0  0
151165  1  0  0  0  0
151322  1  0  0  0  0
151323  1  0  0  0  0
152324  1  0  0  0  0
152325  1  0  0  0  0
153326  1  0  0  0  0
153327  1  0  0  0  0
154161  1  0  0  0  0
154329  1  0  0  0  0
154330  1  0  0  0  0
155333  1  0  0  0  0
155334  1  0  0  0  0
156331  1  0  0  0  0
156332  1  0  0  0  0
157158  1  0  0  0  0
158166  1  0  0  0  0
158335  1  0  0  0  0
161175  1  0  0  0  0
161336  1  0  0  0  0
161337  1  0  0  0  0
162167  1  0  0  0  0
162172  1  0  0  0  0
162338  1  0  0  0  0
166340  1  0  0  0  0
166341  1  0  0  0  0
167174  1  0  0  0  0
167347  1  0  0  0  0
167348  1  0  0  0  0
168170  1  0  0  0  0
168173  1  0  0  0  0
168349  1  0  0  0  0
169171  1  0  0  0  0
169177  1  0  0  0  0
169354  1  0  0  0  0
170179  1  0  0  0  0
170180  1  0  0  0  0
170355  1  0  0  0  0
174186  1  0  0  0  0
174357  1  0  0  0  0
174358  1  0  0  0  0
176182  1  0  0  0  0
176185  1  0  0  0  0
176361  1  0  0  0  0
177362  1  0  0  0  0
177363  1  0  0  0  0
178181  1  0  0  0  0
178184  1  0  0  0  0
178364  1  0  0  0  0
179365  1  0  0  0  0
179366  1  0  0  0  0
179367  1  0  0  0  0
180368  1  0  0  0  0
180369  1  0  0  0  0
180370  1  0  0  0  0
181187  1  0  0  0  0
181188  1  0  0  0  0
181372  1  0  0  0  0
183189  1  0  0  0  0
183190  1  0  0  0  0
183375  1  0  0  0  0
185193  1  0  0  0  0
185379  1  0  0  0  0
185380  1  0  0  0  0
187382  1  0  0  0  0
187383  1  0  0  0  0
187384  1  0  0  0  0
188385  1  0  0  0  0
188386  1  0  0  0  0
188387  1  0  0  0  0
189388  1  0  0  0  0
189389  1  0  0  0  0
189390  1  0  0  0  0
191192  1  0  0  0  0
192196  1  0  0  0  0
192393  1  0  0  0  0
194195  1  0  0  0  0
194198  1  0  0  0  0
194395  1  0  0  0  0
195197  1  0  0  0  0
195396  1  0  0  0  0
195397  1  0  0  0  0
196399  1  0  0  0  0
196400  1  0  0  0  0
196401  1  0  0  0  0
197202  1  0  0  0  0
197403  1  0  0  0  0
197404  1  0  0  0  0
199200  1  0  0  0  0
200201  1  0  0  0  0
200405  1  0  0  0  0
201408  1  0  0  0  0
201409  1  0  0  0  0
201410  1  0  0  0  0
203204  1  0  0  0  0
203205  1  0  0  0  0
203411  1  0  0  0  0
205208  1  0  0  0  0
205413  1  0  0  0  0
205414  1  0  0  0  0
206207  1  0  0  0  0
207209  1  0  0  0  0
207417  1  0  0  0  0
209418  1  0  0  0  0
209419  1  0  0  0  0
210211  1  0  0  0  0
211212  1  0  0  0  0
211421  1  0  0  0  0
212424  1  0  0  0  0
212425  1  0  0  0  0
M  END
> <PUBCHEM_COMPOUND_CID>
44286042

> <PUBCHEM_COMPOUND_CANONICALIZED>
1

> <PUBCHEM_CACTVS_COMPLEXITY>
6930

> <PUBCHEM_CACTVS_HBOND_ACCEPTOR>
57

> <PUBCHEM_CACTVS_HBOND_DONOR>
47

> <PUBCHEM_CACTVS_ROTATABLE_BOND>
109

> <PUBCHEM_CACTVS_SUBSKEYS>
AAADcfB//gBAAAAAAAAAAAAAAAAAAAAAAAAAAAAAAAAAAAAAAAAAHgQQCAAADTzlwAaCCALAAgQIAAGQGAAAAAAAAAAAAIGIAAACUB4AgCAUQAAGNgCQAAG/PwIOAAAAAAAAAAAAAAAAAAAAAAAAAAAAAA==

> <PUBCHEM_IUPAC_OPENEYE_NAME>
(2R)-2-[[(2S)-2-[[(2R)-2-[[(2R)-2-[[(2R)-2-[[(2R)-2-[[(2R)-2-[[(2R)-6-amino-2-[[(2R)-6-amino-2-[[(2R)-2-[[(2R)-6-amino-2-[[(2R)-2-[[(2R)-2-[[(2R)-6-amino-2-[[(2R)-2-[[(2R,3S)-2-[[(2R,3S)-2-[[(2R)-2-[[(2R)-2-[[(2R)-2-[[(2R)-2-[[(2R)-2-[[(2R)-2-[[(2S)-2-[[(2S)-2-[[(2R)-2-[[(2R)-2-[[(2S)-2-amino-3-sulfanyl-propanoyl]amino]-3-hydroxy-propanoyl]amino]-3-carboxy-propanoyl]amino]propanoyl]amino]propanoyl]amino]-3-methyl-butanoyl]amino]-3-carboxy-propanoyl]amino]-3-methyl-butanoyl]amino]-3-hydroxy-propanoyl]amino]-3-hydroxy-propanoyl]amino]-4-carboxy-butanoyl]amino]-3-methyl-pentanoyl]amino]-3-hydroxy-butanoyl]amino]-3-methyl-butanoyl]amino]hexanoyl]amino]-3-carboxy-propanoyl]amino]-4-methyl-pentanoyl]amino]hexanoyl]amino]-4-carboxy-butanoyl]amino]hexanoyl]amino]hexanoyl]amino]-4-carboxy-butanoyl]amino]-3-methyl-butanoyl]amino]-3-methyl-butanoyl]amino]-4-carboxy-butanoyl]amino]-4-carboxy-butanoyl]amino]propanoyl]amino]pentanedioic acid

> <PUBCHEM_IUPAC_CAS_NAME>
(2R)-2-[[(2S)-2-[[(2R)-2-[[(2R)-2-[[(2R)-2-[[(2R)-2-[[(2R)-2-[[(2R)-6-amino-2-[[(2R)-6-amino-2-[[(2R)-2-[[(2R)-6-amino-2-[[(2R)-2-[[(2R)-2-[[(2R)-6-amino-2-[[(2R)-2-[[(2R,3S)-2-[[(2R,3S)-2-[[(2R)-2-[[(2R)-2-[[(2R)-2-[[(2R)-2-[[(2R)-2-[[(2R)-2-[[(2S)-2-[[(2S)-2-[[(2R)-2-[[(2R)-2-[[(2S)-2-amino-3-mercapto-1-oxopropyl]amino]-3-hydroxy-1-oxopropyl]amino]-3-carboxy-1-oxopropyl]amino]-1-oxopropyl]amino]-1-oxopropyl]amino]-3-methyl-1-oxobutyl]amino]-3-carboxy-1-oxopropyl]amino]-3-methyl-1-oxobutyl]amino]-3-hydroxy-1-oxopropyl]amino]-3-hydroxy-1-oxopropyl]amino]-4-carboxy-1-oxobutyl]amino]-3-methyl-1-oxopentyl]amino]-3-hydroxy-1-oxobutyl]amino]-3-methyl-1-oxobutyl]amino]-1-oxohexyl]amino]-3-carboxy-1-oxopropyl]amino]-4-methyl-1-oxopentyl]amino]-1-oxohexyl]amino]-4-carboxy-1-oxobutyl]amino]-1-oxohexyl]amino]-1-oxohexyl]amino]-4-carboxy-1-oxobutyl]amino]-3-methyl-1-oxobutyl]amino]-3-methyl-1-oxobutyl]amino]-4-carboxy-1-oxobutyl]amino]-4-carboxy-1-oxobutyl]amino]-1-oxopropyl]amino]pentanedioic acid

> <PUBCHEM_IUPAC_NAME_MARKUP>
(2<I>R</I>)-2-[[(2<I>S</I>)-2-[[(2<I>R</I>)-2-[[(2<I>R</I>)-2-[[(2<I>R</I>)-2-[[(2<I>R</I>)-2-[[(2<I>R</I>)-2-[[(2<I>R</I>)-6-amino-2-[[(2<I>R</I>)-6-amino-2-[[(2<I>R</I>)-2-[[(2<I>R</I>)-6-amino-2-[[(2<I>R</I>)-2-[[(2<I>R</I>)-2-[[(2<I>R</I>)-6-amino-2-[[(2<I>R</I>)-2-[[(2<I>R</I>,3<I>S</I>)-2-[[(2<I>R</I>,3<I>S</I>)-2-[[(2<I>R</I>)-2-[[(2<I>R</I>)-2-[[(2<I>R</I>)-2-[[(2<I>R</I>)-2-[[(2<I>R</I>)-2-[[(2<I>R</I>)-2-[[(2<I>S</I>)-2-[[(2<I>S</I>)-2-[[(2<I>R</I>)-2-[[(2<I>R</I>)-2-[[(2<I>S</I>)-2-amino-3-sulfanylpropanoyl]amino]-3-hydroxypropanoyl]amino]-3-carboxypropanoyl]amino]propanoyl]amino]propanoyl]amino]-3-methylbutanoyl]amino]-3-carboxypropanoyl]amino]-3-methylbutanoyl]amino]-3-hydroxypropanoyl]amino]-3-hydroxypropanoyl]amino]-4-carboxybutanoyl]amino]-3-methylpentanoyl]amino]-3-hydroxybutanoyl]amino]-3-methylbutanoyl]amino]hexanoyl]amino]-3-carboxypropanoyl]amino]-4-methylpentanoyl]amino]hexanoyl]amino]-4-carboxybutanoyl]amino]hexanoyl]amino]hexanoyl]amino]-4-carboxybutanoyl]amino]-3-methylbutanoyl]amino]-3-methylbutanoyl]amino]-4-carboxybutanoyl]amino]-4-carboxybutanoyl]amino]propanoyl]amino]pentanedioic acid

> <PUBCHEM_IUPAC_NAME>
(2R)-2-[[(2S)-2-[[(2R)-2-[[(2R)-2-[[(2R)-2-[[(2R)-2-[[(2R)-2-[[(2R)-6-amino-2-[[(2R)-6-amino-2-[[(2R)-2-[[(2R)-6-amino-2-[[(2R)-2-[[(2R)-2-[[(2R)-6-amino-2-[[(2R)-2-[[(2R,3S)-2-[[(2R,3S)-2-[[(2R)-2-[[(2R)-2-[[(2R)-2-[[(2R)-2-[[(2R)-2-[[(2R)-2-[[(2S)-2-[[(2S)-2-[[(2R)-2-[[(2R)-2-[[(2S)-2-amino-3-sulfanylpropanoyl]amino]-3-hydroxypropanoyl]amino]-3-carboxypropanoyl]amino]propanoyl]amino]propanoyl]amino]-3-methylbutanoyl]amino]-3-carboxypropanoyl]amino]-3-methylbutanoyl]amino]-3-hydroxypropanoyl]amino]-3-hydroxypropanoyl]amino]-4-carboxybutanoyl]amino]-3-methylpentanoyl]amino]-3-hydroxybutanoyl]amino]-3-methylbutanoyl]amino]hexanoyl]amino]-3-carboxypropanoyl]amino]-4-methylpentanoyl]amino]hexanoyl]amino]-4-carboxybutanoyl]amino]hexanoyl]amino]hexanoyl]amino]-4-carboxybutanoyl]amino]-3-methylbutanoyl]amino]-3-methylbutanoyl]amino]-4-carboxybutanoyl]amino]-4-carboxybutanoyl]amino]propanoyl]amino]pentanedioic acid

> <PUBCHEM_IUPAC_SYSTEMATIC_NAME>
(2R)-2-[[(2S)-2-[[(2R)-2-[[(2R)-2-[[(2R)-2-[[(2R)-2-[[(2R)-2-[[(2R)-6-azanyl-2-[[(2R)-6-azanyl-2-[[(2R)-2-[[(2R)-6-azanyl-2-[[(2R)-2-[[(2R)-2-[[(2R)-6-azanyl-2-[[(2R)-2-[[(2R,3S)-2-[[(2R,3S)-2-[[(2R)-2-[[(2R)-2-[[(2R)-2-[[(2R)-2-[[(2R)-2-[[(2R)-2-[[(2S)-2-[[(2S)-2-[[(2R)-2-[[(2R)-2-[[(2S)-2-azanyl-3-sulfanyl-propanoyl]amino]-3-oxidanyl-propanoyl]amino]-4-oxidanyl-4-oxidanylidene-butanoyl]amino]propanoyl]amino]propanoyl]amino]-3-methyl-butanoyl]amino]-4-oxidanyl-4-oxidanylidene-butanoyl]amino]-3-methyl-butanoyl]amino]-3-oxidanyl-propanoyl]amino]-3-oxidanyl-propanoyl]amino]-5-oxidanyl-5-oxidanylidene-pentanoyl]amino]-3-methyl-pentanoyl]amino]-3-oxidanyl-butanoyl]amino]-3-methyl-butanoyl]amino]hexanoyl]amino]-4-oxidanyl-4-oxidanylidene-butanoyl]amino]-4-methyl-pentanoyl]amino]hexanoyl]amino]-5-oxidanyl-5-oxidanylidene-pentanoyl]amino]hexanoyl]amino]hexanoyl]amino]-5-oxidanyl-5-oxidanylidene-pentanoyl]amino]-3-methyl-butanoyl]amino]-3-methyl-butanoyl]amino]-5-oxidanyl-5-oxidanylidene-pentanoyl]amino]-5-oxidanyl-5-oxidanylidene-pentanoyl]amino]propanoyl]amino]pentanedioic acid

> <PUBCHEM_IUPAC_TRADITIONAL_NAME>
(2R)-2-[[(2S)-2-[[(2R)-2-[[(2R)-2-[[(2R)-2-[[(2R)-2-[[(2R)-2-[[(2R)-6-amino-2-[[(2R)-6-amino-2-[[(2R)-2-[[(2R)-6-amino-2-[[(2R)-2-[[(2R)-2-[[(2R)-6-amino-2-[[(2R)-2-[[(2R,3S)-2-[[(2R,3S)-2-[[(2R)-2-[[(2R)-2-[[(2R)-2-[[(2R)-2-[[(2R)-2-[[(2R)-2-[[(2S)-2-[[(2S)-2-[[(2R)-2-[[(2R)-2-[[(2S)-2-amino-3-mercapto-propanoyl]amino]-3-hydroxy-propanoyl]amino]-3-carboxy-propanoyl]amino]propanoyl]amino]propanoyl]amino]-3-methyl-butanoyl]amino]-3-carboxy-propanoyl]amino]-3-methyl-butanoyl]amino]-3-hydroxy-propanoyl]amino]-3-hydroxy-propanoyl]amino]-4-carboxy-butanoyl]amino]-3-methyl-pentanoyl]amino]-3-hydroxy-butanoyl]amino]-3-methyl-butanoyl]amino]hexanoyl]amino]-3-carboxy-propanoyl]amino]-4-methyl-pentanoyl]amino]hexanoyl]amino]-4-carboxy-butanoyl]amino]hexanoyl]amino]hexanoyl]amino]-4-carboxy-butanoyl]amino]-3-methyl-butanoyl]amino]-3-methyl-butanoyl]amino]-4-carboxy-butanoyl]amino]-4-carboxy-butanoyl]amino]propanoyl]amino]glutaric acid

> <PUBCHEM_IUPAC_INCHI>
InChI=1S/C128H216N32O51S/c1-19-62(14)99(159-113(195)76(36-42-89(173)174)143-118(200)83(53-162)152-120(202)84(54-163)153-124(206)95(58(6)7)156-117(199)81(51-93(181)182)150-123(205)94(57(4)5)154-103(185)65(17)134-101(183)63(15)136-114(196)79(49-91(177)178)149-119(201)82(52-161)151-104(186)67(133)55-212)126(208)160-100(66(18)164)127(209)158-97(60(10)11)121(203)144-71(31-23-27-47-132)109(191)148-80(50-92(179)180)116(198)147-78(48-56(2)3)115(197)139-70(30-22-26-46-131)108(190)141-73(33-39-86(167)168)110(192)138-68(28-20-24-44-129)106(188)137-69(29-21-25-45-130)107(189)142-75(35-41-88(171)172)112(194)155-98(61(12)13)125(207)157-96(59(8)9)122(204)145-74(34-40-87(169)170)111(193)140-72(32-38-85(165)166)105(187)135-64(16)102(184)146-77(128(210)211)37-43-90(175)176/h56-84,94-100,161-164,212H,19-55,129-133H2,1-18H3,(H,134,183)(H,135,187)(H,136,196)(H,137,188)(H,138,192)(H,139,197)(H,140,193)(H,141,190)(H,142,189)(H,143,200)(H,144,203)(H,145,204)(H,146,184)(H,147,198)(H,148,191)(H,149,201)(H,150,205)(H,151,186)(H,152,202)(H,153,206)(H,154,185)(H,155,194)(H,156,199)(H,157,207)(H,158,209)(H,159,195)(H,160,208)(H,165,166)(H,167,168)(H,169,170)(H,171,172)(H,173,174)(H,175,176)(H,177,178)(H,179,180)(H,181,182)(H,210,211)/t62-,63-,64-,65-,66-,67+,68+,69+,70+,71+,72+,73+,74+,75+,76+,77+,78+,79+,80+,81+,82+,83+,84+,94+,95+,96+,97+,98+,99+,100+/m0/s1

> <PUBCHEM_IUPAC_INCHIKEY>
LCJVIYPJPCBWKS-NXPQJCNCSA-N

> <PUBCHEM_XLOGP3_AA>
-22

> <PUBCHEM_EXACT_MASS>
3050.504647

> <PUBCHEM_MOLECULAR_FORMULA>
C128H216N32O51S

> <PUBCHEM_MOLECULAR_WEIGHT>
3051.3

> <PUBCHEM_OPENEYE_CAN_SMILES>
CCC(C)C(C(=O)NC(C(C)O)C(=O)NC(C(C)C)C(=O)NC(CCCCN)C(=O)NC(CC(=O)O)C(=O)NC(CC(C)C)C(=O)NC(CCCCN)C(=O)NC(CCC(=O)O)C(=O)NC(CCCCN)C(=O)NC(CCCCN)C(=O)NC(CCC(=O)O)C(=O)NC(C(C)C)C(=O)NC(C(C)C)C(=O)NC(CCC(=O)O)C(=O)NC(CCC(=O)O)C(=O)NC(C)C(=O)NC(CCC(=O)O)C(=O)O)NC(=O)C(CCC(=O)O)NC(=O)C(CO)NC(=O)C(CO)NC(=O)C(C(C)C)NC(=O)C(CC(=O)O)NC(=O)C(C(C)C)NC(=O)C(C)NC(=O)C(C)NC(=O)C(CC(=O)O)NC(=O)C(CO)NC(=O)C(CS)N

> <PUBCHEM_OPENEYE_ISO_SMILES>
CC[C@H](C)[C@H](C(=O)N[C@H]([C@H](C)O)C(=O)N[C@H](C(C)C)C(=O)N[C@H](CCCCN)C(=O)N[C@H](CC(=O)O)C(=O)N[C@H](CC(C)C)C(=O)N[C@H](CCCCN)C(=O)N[C@H](CCC(=O)O)C(=O)N[C@H](CCCCN)C(=O)N[C@H](CCCCN)C(=O)N[C@H](CCC(=O)O)C(=O)N[C@H](C(C)C)C(=O)N[C@H](C(C)C)C(=O)N[C@H](CCC(=O)O)C(=O)N[C@H](CCC(=O)O)C(=O)N[C@@H](C)C(=O)N[C@H](CCC(=O)O)C(=O)O)NC(=O)[C@@H](CCC(=O)O)NC(=O)[C@@H](CO)NC(=O)[C@@H](CO)NC(=O)[C@@H](C(C)C)NC(=O)[C@@H](CC(=O)O)NC(=O)[C@@H](C(C)C)NC(=O)[C@H](C)NC(=O)[C@H](C)NC(=O)[C@@H](CC(=O)O)NC(=O)[C@@H](CO)NC(=O)[C@@H](CS)N

> <PUBCHEM_CACTVS_TPSA>
1370

> <PUBCHEM_MONOISOTOPIC_WEIGHT>
3049.501292

> <PUBCHEM_TOTAL_CHARGE>
0

> <PUBCHEM_HEAVY_ATOM_COUNT>
212

> <PUBCHEM_ATOM_DEF_STEREO_COUNT>
30

> <PUBCHEM_ATOM_UDEF_STEREO_COUNT>
0

> <PUBCHEM_BOND_DEF_STEREO_COUNT>
0

> <PUBCHEM_BOND_UDEF_STEREO_COUNT>
0

> <PUBCHEM_ISOTOPIC_ATOM_COUNT>
0

> <PUBCHEM_COMPONENT_COUNT>
1

> <PUBCHEM_CACTVS_TAUTO_COUNT>
-1

> <PUBCHEM_COORDINATE_TYPE>
1
5
255

> <PUBCHEM_BONDANNOTATIONS>
102  3  6
86  53  5
88  54  6
87  55  5
92  56  6
95  57  5
91  58  6
100  59  6
96  60  6
99  61  5
108  62  6
107  63  5
113  64  5
109  65  5
114  66  6
148  67  6
162  68  5
158  69  5
169  74  6
168  75  5
183  76  5
176  77  6
178  78  5
194  79  5
192  80  5
200  81  6
203  82  6
207  83  5
211  84  6
85  97  6

$$$$
