445643
  -OEChem-05242006122D

126129  0     1  0  0  0  0  0999 V2000
    7.6897   -2.9934    0.0000 O   0  0  0  0  0  0  0  0  0  0  0  0
    6.4627   -4.4461    0.0000 O   0  0  0  0  0  0  0  0  0  0  0  0
    5.3150   -3.7595    0.0000 O   0  0  0  0  0  0  0  0  0  0  0  0
    7.6897   -1.9934    0.0000 O   0  0  0  0  0  0  0  0  0  0  0  0
    7.3895   -0.6097    0.0000 O   0  0  0  0  0  0  0  0  0  0  0  0
   10.2349    4.7171    0.0000 O   0  0  0  0  0  0  0  0  0  0  0  0
   10.2124   -3.6057    0.0000 O   0  0  0  0  0  0  0  0  0  0  0  0
   11.9670    3.7171    0.0000 O   0  0  0  0  0  0  0  0  0  0  0  0
   10.9671   -2.3111    0.0000 O   0  0  0  0  0  0  0  0  0  0  0  0
    7.2608    2.5659    0.0000 O   0  0  0  0  0  0  0  0  0  0  0  0
    9.1216   -1.6096    0.0000 O   0  0  0  0  0  0  0  0  0  0  0  0
    4.1434    3.0457    0.0000 O   0  0  0  0  0  0  0  0  0  0  0  0
    9.9876   -1.1097    0.0000 N   0  0  0  0  0  0  0  0  0  0  0  0
    6.8237   -2.4934    0.0000 C   0  0  1  0  0  0  0  0  0  0  0  0
    8.5675   -3.5091    0.0000 C   0  0  2  0  0  0  0  0  0  0  0  0
    6.8120   -3.5091    0.0000 C   0  0  2  0  0  0  0  0  0  0  0  0
    7.6897   -4.0204    0.0000 C   0  0  0  0  0  0  0  0  0  0  0  0
    8.5558   -2.4934    0.0000 C   0  0  2  0  0  0  0  0  0  0  0  0
    5.9577   -2.9934    0.0000 C   0  0  2  0  0  0  0  0  0  0  0  0
    5.0916   -2.4934    0.0000 C   0  0  0  0  0  0  0  0  0  0  0  0
    5.0916   -1.4934    0.0000 C   0  0  2  0  0  0  0  0  0  0  0  0
    8.9168   -4.4462    0.0000 C   0  0  0  0  0  0  0  0  0  0  0  0
    9.3689    2.2171    0.0000 C   0  0  1  0  0  0  0  0  0  0  0  0
    9.4218   -2.9934    0.0000 C   0  0  0  0  0  0  0  0  0  0  0  0
    9.3689    3.2171    0.0000 C   0  0  0  0  0  0  0  0  0  0  0  0
   10.2349    1.7171    0.0000 C   0  0  0  0  0  0  0  0  0  0  0  0
   10.2349    3.7171    0.0000 C   0  0  2  0  0  0  0  0  0  0  0  0
   11.1009    3.2171    0.0000 C   0  0  1  0  0  0  0  0  0  0  0  0
   11.1009    2.2171    0.0000 C   0  0  0  0  0  0  0  0  0  0  0  0
    9.1216   -0.6097    0.0000 C   0  0  1  0  0  0  0  0  0  0  0  0
    4.2256   -0.9934    0.0000 C   0  0  0  0  0  0  0  0  0  0  0  0
    9.9876   -2.1097    0.0000 C   0  0  0  0  0  0  0  0  0  0  0  0
    7.3895    0.3903    0.0000 C   0  0  1  0  0  0  0  0  0  0  0  0
    9.1216    0.3903    0.0000 C   0  0  0  0  0  0  0  0  0  0  0  0
   10.8536   -0.6097    0.0000 C   0  0  0  0  0  0  0  0  0  0  0  0
    8.5029    1.7171    0.0000 C   0  0  0  0  0  0  0  0  0  0  0  0
    6.5235    0.8903    0.0000 C   0  0  1  0  0  0  0  0  0  0  0  0
    9.9876    0.8903    0.0000 C   0  0  0  0  0  0  0  0  0  0  0  0
   10.8536    0.3903    0.0000 C   0  0  0  0  0  0  0  0  0  0  0  0
    8.3292    0.7323    0.0000 C   0  0  0  0  0  0  0  0  0  0  0  0
    5.9577   -0.9934    0.0000 C   0  0  0  0  0  0  0  0  0  0  0  0
    6.5235    1.8903    0.0000 C   0  0  2  0  0  0  0  0  0  0  0  0
    8.2556   -1.1097    0.0000 C   0  0  0  0  0  0  0  0  0  0  0  0
    4.2256    0.0066    0.0000 C   0  0  0  0  0  0  0  0  0  0  0  0
    7.0996   -5.2171    0.0000 C   0  0  0  0  0  0  0  0  0  0  0  0
    4.3301   -3.5858    0.0000 C   0  0  0  0  0  0  0  0  0  0  0  0
    5.8164    2.5974    0.0000 C   0  0  0  0  0  0  0  0  0  0  0  0
    6.5235   -0.1097    0.0000 C   0  0  0  0  0  0  0  0  0  0  0  0
    4.5916    1.3727    0.0000 C   0  0  2  0  0  0  0  0  0  0  0  0
    9.2102   -0.0069    0.0000 C   0  0  0  0  0  0  0  0  0  0  0  0
    5.0916    0.5066    0.0000 C   0  0  0  0  0  0  0  0  0  0  0  0
    4.8505    2.3386    0.0000 C   0  0  0  0  0  0  0  0  0  0  0  0
    3.3596    0.5066    0.0000 C   0  0  0  0  0  0  0  0  0  0  0  0
    3.6002    1.2421    0.0000 C   0  0  0  0  0  0  0  0  0  0  0  0
   11.1009    5.2171    0.0000 C   0  0  0  0  0  0  0  0  0  0  0  0
    2.9914    2.0355    0.0000 C   0  0  0  0  0  0  0  0  0  0  0  0
    2.0000    1.9050    0.0000 C   0  0  0  0  0  0  0  0  0  0  0  0
    6.4030   -1.7548    0.0000 H   0  0  0  0  0  0  0  0  0  0  0  0
    9.1770   -3.3956    0.0000 H   0  0  0  0  0  0  0  0  0  0  0  0
    6.2024   -3.3956    0.0000 H   0  0  0  0  0  0  0  0  0  0  0  0
    7.2906   -4.4949    0.0000 H   0  0  0  0  0  0  0  0  0  0  0  0
    8.0889   -4.4949    0.0000 H   0  0  0  0  0  0  0  0  0  0  0  0
    6.3562   -3.4683    0.0000 H   0  0  0  0  0  0  0  0  0  0  0  0
    4.4811   -2.3857    0.0000 H   0  0  0  0  0  0  0  0  0  0  0  0
    4.8796   -3.0760    0.0000 H   0  0  0  0  0  0  0  0  0  0  0  0
    5.0916   -0.8734    0.0000 H   0  0  0  0  0  0  0  0  0  0  0  0
    8.3358   -4.6627    0.0000 H   0  0  0  0  0  0  0  0  0  0  0  0
    9.1333   -5.0271    0.0000 H   0  0  0  0  0  0  0  0  0  0  0  0
    9.4977   -4.2296    0.0000 H   0  0  0  0  0  0  0  0  0  0  0  0
    9.3689    1.5971    0.0000 H   0  0  0  0  0  0  0  0  0  0  0  0
    9.1568    3.7997    0.0000 H   0  0  0  0  0  0  0  0  0  0  0  0
    8.7583    3.1095    0.0000 H   0  0  0  0  0  0  0  0  0  0  0  0
    9.8364    1.2422    0.0000 H   0  0  0  0  0  0  0  0  0  0  0  0
   10.6334    1.2422    0.0000 H   0  0  0  0  0  0  0  0  0  0  0  0
    9.6980    4.0271    0.0000 H   0  0  0  0  0  0  0  0  0  0  0  0
   11.6379    2.9071    0.0000 H   0  0  0  0  0  0  0  0  0  0  0  0
   11.3130    1.6345    0.0000 H   0  0  0  0  0  0  0  0  0  0  0  0
   11.7115    2.3248    0.0000 H   0  0  0  0  0  0  0  0  0  0  0  0
    8.3855   -0.1847    0.0000 H   0  0  0  0  0  0  0  0  0  0  0  0
    3.6150   -0.8857    0.0000 H   0  0  0  0  0  0  0  0  0  0  0  0
    4.0136   -1.5760    0.0000 H   0  0  0  0  0  0  0  0  0  0  0  0
    7.8974    0.0347    0.0000 H   0  0  0  0  0  0  0  0  0  0  0  0
    8.9095    0.9729    0.0000 H   0  0  0  0  0  0  0  0  0  0  0  0
    8.5110    0.2826    0.0000 H   0  0  0  0  0  0  0  0  0  0  0  0
    7.6897   -1.3734    0.0000 H   0  0  0  0  0  0  0  0  0  0  0  0
   11.0657   -1.1923    0.0000 H   0  0  0  0  0  0  0  0  0  0  0  0
   11.4642   -0.5020    0.0000 H   0  0  0  0  0  0  0  0  0  0  0  0
    8.0279    2.1157    0.0000 H   0  0  0  0  0  0  0  0  0  0  0  0
    5.9035    0.8903    0.0000 H   0  0  0  0  0  0  0  0  0  0  0  0
   10.3861    1.3652    0.0000 H   0  0  0  0  0  0  0  0  0  0  0  0
    9.5891    1.3652    0.0000 H   0  0  0  0  0  0  0  0  0  0  0  0
   11.4642    0.2826    0.0000 H   0  0  0  0  0  0  0  0  0  0  0  0
   11.0657    0.9729    0.0000 H   0  0  0  0  0  0  0  0  0  0  0  0
    6.2677   -1.5303    0.0000 H   0  0  0  0  0  0  0  0  0  0  0  0
    6.4946   -0.6834    0.0000 H   0  0  0  0  0  0  0  0  0  0  0  0
    5.6477   -0.4564    0.0000 H   0  0  0  0  0  0  0  0  0  0  0  0
    7.0910    1.6406    0.0000 H   0  0  0  0  0  0  0  0  0  0  0  0
    6.6216   -5.6120    0.0000 H   0  0  0  0  0  0  0  0  0  0  0  0
    7.4945   -5.6951    0.0000 H   0  0  0  0  0  0  0  0  0  0  0  0
    7.5776   -4.8223    0.0000 H   0  0  0  0  0  0  0  0  0  0  0  0
    6.3243    2.9530    0.0000 H   0  0  0  0  0  0  0  0  0  0  0  0
    5.5544    3.1593    0.0000 H   0  0  0  0  0  0  0  0  0  0  0  0
    4.4378   -2.9752    0.0000 H   0  0  0  0  0  0  0  0  0  0  0  0
    3.7195   -3.4781    0.0000 H   0  0  0  0  0  0  0  0  0  0  0  0
    4.2224   -4.1964    0.0000 H   0  0  0  0  0  0  0  0  0  0  0  0
    5.9035   -0.1097    0.0000 H   0  0  0  0  0  0  0  0  0  0  0  0
    6.5235   -0.7297    0.0000 H   0  0  0  0  0  0  0  0  0  0  0  0
    7.1435   -0.1097    0.0000 H   0  0  0  0  0  0  0  0  0  0  0  0
    4.1829    1.8388    0.0000 H   0  0  0  0  0  0  0  0  0  0  0  0
    8.8116   -0.4818    0.0000 H   0  0  0  0  0  0  0  0  0  0  0  0
    9.6851   -0.4054    0.0000 H   0  0  0  0  0  0  0  0  0  0  0  0
    9.6087    0.4681    0.0000 H   0  0  0  0  0  0  0  0  0  0  0  0
    5.5301    0.0682    0.0000 H   0  0  0  0  0  0  0  0  0  0  0  0
   12.5039    3.4071    0.0000 H   0  0  0  0  0  0  0  0  0  0  0  0
    3.6696    1.0436    0.0000 H   0  0  0  0  0  0  0  0  0  0  0  0
    2.8227    0.8166    0.0000 H   0  0  0  0  0  0  0  0  0  0  0  0
    3.0496   -0.0303    0.0000 H   0  0  0  0  0  0  0  0  0  0  0  0
    3.0503    0.9559    0.0000 H   0  0  0  0  0  0  0  0  0  0  0  0
    3.7866    0.6508    0.0000 H   0  0  0  0  0  0  0  0  0  0  0  0
   11.4109    4.6802    0.0000 H   0  0  0  0  0  0  0  0  0  0  0  0
   11.6379    5.5271    0.0000 H   0  0  0  0  0  0  0  0  0  0  0  0
   10.7909    5.7541    0.0000 H   0  0  0  0  0  0  0  0  0  0  0  0
    7.1266    3.1712    0.0000 H   0  0  0  0  0  0  0  0  0  0  0  0
    3.2287    2.6083    0.0000 H   0  0  0  0  0  0  0  0  0  0  0  0
    1.6226    2.3968    0.0000 H   0  0  0  0  0  0  0  0  0  0  0  0
    1.7627    1.3322    0.0000 H   0  0  0  0  0  0  0  0  0  0  0  0
  1 14  1  0  0  0  0
  1 18  1  0  0  0  0
 16  2  1  6  0  0  0
  2 45  1  0  0  0  0
 19  3  1  1  0  0  0
  3 46  1  0  0  0  0
 18  4  1  6  0  0  0
  4 85  1  0  0  0  0
  5 33  1  0  0  0  0
  5 43  1  0  0  0  0
 27  6  1  1  0  0  0
  6 55  1  0  0  0  0
  7 24  2  0  0  0  0
 28  8  1  6  0  0  0
  8114  1  0  0  0  0
  9 32  2  0  0  0  0
 42 10  1  6  0  0  0
 10123  1  0  0  0  0
 11 43  2  0  0  0  0
 12 52  2  0  0  0  0
 13 30  1  0  0  0  0
 13 32  1  0  0  0  0
 13 35  1  0  0  0  0
 14 16  1  0  0  0  0
 14 19  1  0  0  0  0
 14 58  1  6  0  0  0
 15 17  1  0  0  0  0
 15 18  1  0  0  0  0
 15 22  1  6  0  0  0
 15 59  1  0  0  0  0
 16 17  1  0  0  0  0
 16 60  1  0  0  0  0
 17 61  1  0  0  0  0
 17 62  1  0  0  0  0
 18 24  1  0  0  0  0
 19 20  1  0  0  0  0
 19 63  1  0  0  0  0
 20 21  1  0  0  0  0
 20 64  1  0  0  0  0
 20 65  1  0  0  0  0
 21 31  1  0  0  0  0
 21 41  1  6  0  0  0
 21 66  1  0  0  0  0
 22 67  1  0  0  0  0
 22 68  1  0  0  0  0
 22 69  1  0  0  0  0
 23 25  1  0  0  0  0
 23 26  1  0  0  0  0
 23 36  1  1  0  0  0
 23 70  1  0  0  0  0
 24 32  1  0  0  0  0
 25 27  1  0  0  0  0
 25 71  1  0  0  0  0
 25 72  1  0  0  0  0
 26 29  1  0  0  0  0
 26 73  1  0  0  0  0
 26 74  1  0  0  0  0
 27 28  1  0  0  0  0
 27 75  1  0  0  0  0
 28 29  1  0  0  0  0
 28 76  1  0  0  0  0
 29 77  1  0  0  0  0
 29 78  1  0  0  0  0
 30 34  1  0  0  0  0
 30 43  1  0  0  0  0
 30 79  1  1  0  0  0
 31 44  1  0  0  0  0
 31 80  1  0  0  0  0
 31 81  1  0  0  0  0
 33 37  1  0  0  0  0
 33 40  1  1  0  0  0
 33 82  1  0  0  0  0
 34 38  1  0  0  0  0
 34 83  1  0  0  0  0
 34 84  1  0  0  0  0
 35 39  1  0  0  0  0
 35 86  1  0  0  0  0
 35 87  1  0  0  0  0
 36 40  2  0  0  0  0
 36 88  1  0  0  0  0
 37 42  1  0  0  0  0
 37 48  1  6  0  0  0
 37 89  1  0  0  0  0
 38 39  1  0  0  0  0
 38 90  1  0  0  0  0
 38 91  1  0  0  0  0
 39 92  1  0  0  0  0
 39 93  1  0  0  0  0
 40 50  1  0  0  0  0
 41 94  1  0  0  0  0
 41 95  1  0  0  0  0
 41 96  1  0  0  0  0
 42 47  1  0  0  0  0
 42 97  1  0  0  0  0
 44 51  2  0  0  0  0
 44 53  1  0  0  0  0
 45 98  1  0  0  0  0
 45 99  1  0  0  0  0
 45100  1  0  0  0  0
 46103  1  0  0  0  0
 46104  1  0  0  0  0
 46105  1  0  0  0  0
 47 52  1  0  0  0  0
 47101  1  0  0  0  0
 47102  1  0  0  0  0
 48106  1  0  0  0  0
 48107  1  0  0  0  0
 48108  1  0  0  0  0
 49 51  1  0  0  0  0
 49 52  1  0  0  0  0
 49 54  1  1  0  0  0
 49109  1  0  0  0  0
 50110  1  0  0  0  0
 50111  1  0  0  0  0
 50112  1  0  0  0  0
 51113  1  0  0  0  0
 53115  1  0  0  0  0
 53116  1  0  0  0  0
 53117  1  0  0  0  0
 54 56  1  0  0  0  0
 54118  1  0  0  0  0
 54119  1  0  0  0  0
 55120  1  0  0  0  0
 55121  1  0  0  0  0
 55122  1  0  0  0  0
 56 57  2  0  0  0  0
 56124  1  0  0  0  0
 57125  1  0  0  0  0
 57126  1  0  0  0  0
M  END
> <PUBCHEM_COMPOUND_CID>
445643

> <PUBCHEM_COMPOUND_CANONICALIZED>
1

> <PUBCHEM_CACTVS_COMPLEXITY>
1480

> <PUBCHEM_CACTVS_HBOND_ACCEPTOR>
12

> <PUBCHEM_CACTVS_HBOND_DONOR>
3

> <PUBCHEM_CACTVS_ROTATABLE_BOND>
7

> <PUBCHEM_CACTVS_SUBSKEYS>
AAADcfB+PAAAAAAAAAAAAAAAAAAAAAAAAAA8SIAAAAAAAAAAAAAAHgAACAAADTzhgAYCCAMABgCIAqHSGAIAAAAgAAAICAHIAAgTFBYAoSQHUAAHpgCfIAPY7PTOAAAAAAAAAABAAAIAAACAAAAAAAAAAA==

> <PUBCHEM_IUPAC_OPENEYE_NAME>
(1R,9S,12S,13R,14S,17R,18E,21S,23S,24R,25S,27R)-17-allyl-1,14-dihydroxy-12-[(E)-2-[(1R,3R,4R)-4-hydroxy-3-methoxy-cyclohexyl]-1-methyl-vinyl]-23,25-dimethoxy-13,19,21,27-tetramethyl-11,28-dioxa-4-azatricyclo[22.3.1.04,9]octacos-18-ene-2,3,10,16-tetrone

> <PUBCHEM_IUPAC_CAS_NAME>
(1R,9S,12S,13R,14S,17R,18E,21S,23S,24R,25S,27R)-1,14-dihydroxy-12-[(E)-1-[(1R,3R,4R)-4-hydroxy-3-methoxycyclohexyl]prop-1-en-2-yl]-23,25-dimethoxy-13,19,21,27-tetramethyl-17-prop-2-enyl-11,28-dioxa-4-azatricyclo[22.3.1.04,9]octacos-18-ene-2,3,10,16-tetrone

> <PUBCHEM_IUPAC_NAME_MARKUP>
(1<I>R</I>,9<I>S</I>,12<I>S</I>,13<I>R</I>,14<I>S</I>,17<I>R</I>,18<I>E</I>,21<I>S</I>,23<I>S</I>,24<I>R</I>,25<I>S</I>,27<I>R</I>)-1,14-dihydroxy-12-[(<I>E</I>)-1-[(1<I>R</I>,3<I>R</I>,4<I>R</I>)-4-hydroxy-3-methoxycyclohexyl]prop-1-en-2-yl]-23,25-dimethoxy-13,19,21,27-tetramethyl-17-prop-2-enyl-11,28-dioxa-4-azatricyclo[22.3.1.0<SUP>4,9</SUP>]octacos-18-ene-2,3,10,16-tetrone

> <PUBCHEM_IUPAC_NAME>
(1R,9S,12S,13R,14S,17R,18E,21S,23S,24R,25S,27R)-1,14-dihydroxy-12-[(E)-1-[(1R,3R,4R)-4-hydroxy-3-methoxycyclohexyl]prop-1-en-2-yl]-23,25-dimethoxy-13,19,21,27-tetramethyl-17-prop-2-enyl-11,28-dioxa-4-azatricyclo[22.3.1.04,9]octacos-18-ene-2,3,10,16-tetrone

> <PUBCHEM_IUPAC_SYSTEMATIC_NAME>
(1R,9S,12S,13R,14S,17R,18E,21S,23S,24R,25S,27R)-23,25-dimethoxy-12-[(E)-1-[(1R,3R,4R)-3-methoxy-4-oxidanyl-cyclohexyl]prop-1-en-2-yl]-13,19,21,27-tetramethyl-1,14-bis(oxidanyl)-17-prop-2-enyl-11,28-dioxa-4-azatricyclo[22.3.1.04,9]octacos-18-ene-2,3,10,16-tetrone

> <PUBCHEM_IUPAC_TRADITIONAL_NAME>
(1R,9S,12S,13R,14S,17R,18E,21S,23S,24R,25S,27R)-17-allyl-1,14-dihydroxy-12-[(E)-2-[(1R,3R,4R)-4-hydroxy-3-methoxy-cyclohexyl]-1-methyl-vinyl]-23,25-dimethoxy-13,19,21,27-tetramethyl-11,28-dioxa-4-azatricyclo[22.3.1.04,9]octacos-18-ene-2,3,10,16-diquinone

> <PUBCHEM_IUPAC_INCHI>
InChI=1S/C44H69NO12/c1-10-13-31-19-25(2)18-26(3)20-37(54-8)40-38(55-9)22-28(5)44(52,57-40)41(49)42(50)45-17-12-11-14-32(45)43(51)56-39(29(6)34(47)24-35(31)48)27(4)21-30-15-16-33(46)36(23-30)53-7/h10,19,21,26,28-34,36-40,46-47,52H,1,11-18,20,22-24H2,2-9H3/b25-19+,27-21+/t26-,28+,29+,30-,31+,32-,33+,34-,36+,37-,38-,39+,40+,44+/m0/s1

> <PUBCHEM_IUPAC_INCHIKEY>
QJJXYPPXXYFBGM-LFZNUXCKSA-N

> <PUBCHEM_XLOGP3>
2.7

> <PUBCHEM_EXACT_MASS>
803.481977

> <PUBCHEM_MOLECULAR_FORMULA>
C44H69NO12

> <PUBCHEM_MOLECULAR_WEIGHT>
804

> <PUBCHEM_OPENEYE_CAN_SMILES>
CC1CC(C2C(CC(C(O2)(C(=O)C(=O)N3CCCCC3C(=O)OC(C(C(CC(=O)C(C=C(C1)C)CC=C)O)C)C(=CC4CCC(C(C4)OC)O)C)O)C)OC)OC

> <PUBCHEM_OPENEYE_ISO_SMILES>
C[C@@H]1C[C@@H]([C@@H]2[C@H](C[C@H]([C@@](O2)(C(=O)C(=O)N3CCCC[C@H]3C(=O)O[C@@H]([C@@H]([C@H](CC(=O)[C@@H](/C=C(/C1)\C)CC=C)O)C)/C(=C/[C@@H]4CC[C@H]([C@@H](C4)OC)O)/C)O)C)OC)OC

> <PUBCHEM_CACTVS_TPSA>
178

> <PUBCHEM_MONOISOTOPIC_WEIGHT>
803.481977

> <PUBCHEM_TOTAL_CHARGE>
0

> <PUBCHEM_HEAVY_ATOM_COUNT>
57

> <PUBCHEM_ATOM_DEF_STEREO_COUNT>
14

> <PUBCHEM_ATOM_UDEF_STEREO_COUNT>
0

> <PUBCHEM_BOND_DEF_STEREO_COUNT>
2

> <PUBCHEM_BOND_UDEF_STEREO_COUNT>
0

> <PUBCHEM_ISOTOPIC_ATOM_COUNT>
0

> <PUBCHEM_COMPONENT_COUNT>
1

> <PUBCHEM_CACTVS_TAUTO_COUNT>
-1

> <PUBCHEM_COORDINATE_TYPE>
1
5
255

> <PUBCHEM_BONDANNOTATIONS>
42  10  6
14  58  6
15  22  6
16  2  6
21  41  6
23  36  5
19  3  5
30  79  5
33  40  5
37  48  6
18  4  6
49  54  5
27  6  5
28  8  6

$$$$
