46215462
  -OEChem-05242006132D

 72 78  0     1  0  0  0  0  0999 V2000
   13.8762   -3.8869    0.0000 N   0  0  0  0  0  0  0  0  0  0  0  0
    8.7478   -0.8825    0.0000 N   0  0  0  0  0  0  0  0  0  0  0  0
    7.4121    1.3337    0.0000 N   0  0  0  0  0  0  0  0  0  0  0  0
    7.4459    0.3343    0.0000 N   0  0  0  0  0  0  0  0  0  0  0  0
    8.9670    0.8860    0.0000 N   0  0  0  0  0  0  0  0  0  0  0  0
    4.7892    2.0353    0.0000 N   0  0  0  0  0  0  0  0  0  0  0  0
    5.6452    1.4419    0.0000 N   0  0  0  0  0  0  0  0  0  0  0  0
    8.6289    2.6356    0.0000 N   0  0  0  0  0  0  0  0  0  0  0  0
   13.1134   -3.2403    0.0000 C   0  0  2  0  0  0  0  0  0  0  0  0
   13.8015   -4.8841    0.0000 C   0  0  0  0  0  0  0  0  0  0  0  0
   14.8477   -3.6498    0.0000 C   0  0  0  0  0  0  0  0  0  0  0  0
   12.1998   -3.6471    0.0000 C   0  0  0  0  0  0  0  0  0  0  0  0
   13.3649   -2.2725    0.0000 C   0  0  0  0  0  0  0  0  0  0  0  0
   14.7268   -5.2634    0.0000 C   0  0  0  0  0  0  0  0  0  0  0  0
   15.3734   -4.5005    0.0000 C   0  0  0  0  0  0  0  0  0  0  0  0
   11.3122   -3.1864    0.0000 C   0  0  0  0  0  0  0  0  0  0  0  0
   12.7651   -1.4724    0.0000 C   0  0  0  0  0  0  0  0  0  0  0  0
   11.1190   -2.2053    0.0000 C   0  0  0  0  0  0  0  0  0  0  0  0
   11.7656   -1.4424    0.0000 C   0  0  0  0  0  0  0  0  0  0  0  0
   10.0913   -2.0351    0.0000 C   0  0  0  0  0  0  0  0  0  0  0  0
   11.4294   -0.4566    0.0000 C   0  0  0  0  0  0  0  0  0  0  0  0
    9.7324   -1.0573    0.0000 C   0  0  0  0  0  0  0  0  0  0  0  0
   10.4059   -0.2627    0.0000 C   0  0  0  0  0  0  0  0  0  0  0  0
    5.3830    5.2634    0.0000 C   0  0  0  0  0  0  0  0  0  0  0  0
    6.0065    4.4815    0.0000 C   0  0  0  0  0  0  0  0  0  0  0  0
    4.3830    5.2634    0.0000 C   0  0  0  0  0  0  0  0  0  0  0  0
    8.4068    0.0576    0.0000 C   0  0  0  0  0  0  0  0  0  0  0  0
    5.7840    3.5066    0.0000 C   0  0  0  0  0  0  0  0  0  0  0  0
    3.7595    4.4815    0.0000 C   0  0  0  0  0  0  0  0  0  0  0  0
    3.9820    3.5066    0.0000 C   0  0  0  0  0  0  0  0  0  0  0  0
    4.8830    3.0727    0.0000 C   0  0  0  0  0  0  0  0  0  0  0  0
    6.6536    2.9332    0.0000 C   0  0  0  0  0  0  0  0  0  0  0  0
    6.5837    1.8939    0.0000 C   0  0  0  0  0  0  0  0  0  0  0  0
    2.7690    4.8038    0.0000 C   0  0  0  0  0  0  0  0  0  0  0  0
    3.2295    2.7864    0.0000 C   0  0  0  0  0  0  0  0  0  0  0  0
    8.3522    1.6747    0.0000 C   0  0  0  0  0  0  0  0  0  0  0  0
    2.0000    4.1013    0.0000 C   0  0  0  0  0  0  0  0  0  0  0  0
    2.2318    3.0858    0.0000 C   0  0  0  0  0  0  0  0  0  0  0  0
   13.0255   -3.8541    0.0000 H   0  0  0  0  0  0  0  0  0  0  0  0
   13.1914   -4.7734    0.0000 H   0  0  0  0  0  0  0  0  0  0  0  0
   13.6276   -5.4793    0.0000 H   0  0  0  0  0  0  0  0  0  0  0  0
   15.4063   -3.3808    0.0000 H   0  0  0  0  0  0  0  0  0  0  0  0
   14.6385   -3.0662    0.0000 H   0  0  0  0  0  0  0  0  0  0  0  0
   11.7989   -4.1200    0.0000 H   0  0  0  0  0  0  0  0  0  0  0  0
   12.5717   -4.1431    0.0000 H   0  0  0  0  0  0  0  0  0  0  0  0
   13.9152   -2.5581    0.0000 H   0  0  0  0  0  0  0  0  0  0  0  0
   13.7658   -1.7995    0.0000 H   0  0  0  0  0  0  0  0  0  0  0  0
   14.4330   -5.8093    0.0000 H   0  0  0  0  0  0  0  0  0  0  0  0
   15.2390   -5.6126    0.0000 H   0  0  0  0  0  0  0  0  0  0  0  0
   15.8018   -4.9486    0.0000 H   0  0  0  0  0  0  0  0  0  0  0  0
   15.8638   -4.1212    0.0000 H   0  0  0  0  0  0  0  0  0  0  0  0
   10.6925   -3.1679    0.0000 H   0  0  0  0  0  0  0  0  0  0  0  0
   11.1562   -3.7865    0.0000 H   0  0  0  0  0  0  0  0  0  0  0  0
   13.3315   -1.2202    0.0000 H   0  0  0  0  0  0  0  0  0  0  0  0
   12.6453   -0.8640    0.0000 H   0  0  0  0  0  0  0  0  0  0  0  0
    9.6959   -2.5127    0.0000 H   0  0  0  0  0  0  0  0  0  0  0  0
   11.8357    0.0117    0.0000 H   0  0  0  0  0  0  0  0  0  0  0  0
   10.1990    0.3218    0.0000 H   0  0  0  0  0  0  0  0  0  0  0  0
    8.3487   -1.3570    0.0000 H   0  0  0  0  0  0  0  0  0  0  0  0
    5.9416    5.5324    0.0000 H   0  0  0  0  0  0  0  0  0  0  0  0
    5.2450    5.8678    0.0000 H   0  0  0  0  0  0  0  0  0  0  0  0
    6.5651    4.2125    0.0000 H   0  0  0  0  0  0  0  0  0  0  0  0
    6.3930    4.9662    0.0000 H   0  0  0  0  0  0  0  0  0  0  0  0
    4.5210    5.8678    0.0000 H   0  0  0  0  0  0  0  0  0  0  0  0
    3.8244    5.5324    0.0000 H   0  0  0  0  0  0  0  0  0  0  0  0
    7.2090    3.2086    0.0000 H   0  0  0  0  0  0  0  0  0  0  0  0
    2.6380    5.4099    0.0000 H   0  0  0  0  0  0  0  0  0  0  0  0
    3.3744    2.1836    0.0000 H   0  0  0  0  0  0  0  0  0  0  0  0
    1.4082    4.2863    0.0000 H   0  0  0  0  0  0  0  0  0  0  0  0
    1.7789    2.6623    0.0000 H   0  0  0  0  0  0  0  0  0  0  0  0
    9.2307    2.7849    0.0000 H   0  0  0  0  0  0  0  0  0  0  0  0
    8.1987    3.0821    0.0000 H   0  0  0  0  0  0  0  0  0  0  0  0
  9  1  1  6  0  0  0
  1 10  1  0  0  0  0
  1 11  1  0  0  0  0
  2 22  1  0  0  0  0
  2 27  1  0  0  0  0
  2 59  1  0  0  0  0
  3  4  1  0  0  0  0
  3 33  1  0  0  0  0
  3 36  1  0  0  0  0
  4 27  2  0  0  0  0
  5 27  1  0  0  0  0
  5 36  2  0  0  0  0
  6  7  1  0  0  0  0
  6 31  2  0  0  0  0
  7 33  2  0  0  0  0
  8 36  1  0  0  0  0
  8 71  1  0  0  0  0
  8 72  1  0  0  0  0
  9 12  1  0  0  0  0
  9 13  1  0  0  0  0
  9 39  1  0  0  0  0
 10 14  1  0  0  0  0
 10 40  1  0  0  0  0
 10 41  1  0  0  0  0
 11 15  1  0  0  0  0
 11 42  1  0  0  0  0
 11 43  1  0  0  0  0
 12 16  1  0  0  0  0
 12 44  1  0  0  0  0
 12 45  1  0  0  0  0
 13 17  1  0  0  0  0
 13 46  1  0  0  0  0
 13 47  1  0  0  0  0
 14 15  1  0  0  0  0
 14 48  1  0  0  0  0
 14 49  1  0  0  0  0
 15 50  1  0  0  0  0
 15 51  1  0  0  0  0
 16 18  1  0  0  0  0
 16 52  1  0  0  0  0
 16 53  1  0  0  0  0
 17 19  1  0  0  0  0
 17 54  1  0  0  0  0
 17 55  1  0  0  0  0
 18 19  2  0  0  0  0
 18 20  1  0  0  0  0
 19 21  1  0  0  0  0
 20 22  2  0  0  0  0
 20 56  1  0  0  0  0
 21 23  2  0  0  0  0
 21 57  1  0  0  0  0
 22 23  1  0  0  0  0
 23 58  1  0  0  0  0
 24 25  1  0  0  0  0
 24 26  1  0  0  0  0
 24 60  1  0  0  0  0
 24 61  1  0  0  0  0
 25 28  1  0  0  0  0
 25 62  1  0  0  0  0
 25 63  1  0  0  0  0
 26 29  1  0  0  0  0
 26 64  1  0  0  0  0
 26 65  1  0  0  0  0
 28 31  1  0  0  0  0
 28 32  2  0  0  0  0
 29 30  1  0  0  0  0
 29 34  2  0  0  0  0
 30 31  1  0  0  0  0
 30 35  2  0  0  0  0
 32 33  1  0  0  0  0
 32 66  1  0  0  0  0
 34 37  1  0  0  0  0
 34 67  1  0  0  0  0
 35 38  1  0  0  0  0
 35 68  1  0  0  0  0
 37 38  2  0  0  0  0
 37 69  1  0  0  0  0
 38 70  1  0  0  0  0
M  END
> <PUBCHEM_COMPOUND_CID>
46215462

> <PUBCHEM_COMPOUND_CANONICALIZED>
1

> <PUBCHEM_CACTVS_COMPLEXITY>
775

> <PUBCHEM_CACTVS_HBOND_ACCEPTOR>
7

> <PUBCHEM_CACTVS_HBOND_DONOR>
2

> <PUBCHEM_CACTVS_ROTATABLE_BOND>
4

> <PUBCHEM_CACTVS_SUBSKEYS>
AAADcfB7wAAAAAAAAAAAAAAAAAAAAWLAAAA8YIAABgwAAAAB9AAAHAAYAAAADCjBHgQx8JfIEACiAyZiZACSBCshAoAdmCA4ZJiIKKLAmZGEoAh4mALIyCcQgMAOiAAAQAAQAAAQAACAACAAAAAAAAAAAA==

> <PUBCHEM_IUPAC_OPENEYE_NAME>
1-(3,4-diazatricyclo[9.4.0.02,7]pentadeca-1(15),2,4,6,11,13-hexaen-5-yl)-N3-[(7S)-7-pyrrolidin-1-yl-6,7,8,9-tetrahydro-5H-benzo[7]annulen-3-yl]-1,2,4-triazole-3,5-diamine

> <PUBCHEM_IUPAC_CAS_NAME>
1-(3,4-diazatricyclo[9.4.0.02,7]pentadeca-1(15),2,4,6,11,13-hexaen-5-yl)-N3-[(7S)-7-(1-pyrrolidinyl)-6,7,8,9-tetrahydro-5H-benzo[7]annulen-3-yl]-1,2,4-triazole-3,5-diamine

> <PUBCHEM_IUPAC_NAME_MARKUP>
1-(3,4-diazatricyclo[9.4.0.0<SUP>2,7</SUP>]pentadeca-1(15),2,4,6,11,13-hexaen-5-yl)-3-<I>N</I>-[(7<I>S</I>)-7-pyrrolidin-1-yl-6,7,8,9-tetrahydro-5<I>H</I>-benzo[7]annulen-3-yl]-1,2,4-triazole-3,5-diamine

> <PUBCHEM_IUPAC_NAME>
1-(3,4-diazatricyclo[9.4.0.02,7]pentadeca-1(15),2,4,6,11,13-hexaen-5-yl)-3-N-[(7S)-7-pyrrolidin-1-yl-6,7,8,9-tetrahydro-5H-benzo[7]annulen-3-yl]-1,2,4-triazole-3,5-diamine

> <PUBCHEM_IUPAC_SYSTEMATIC_NAME>
1-(3,4-diazatricyclo[9.4.0.02,7]pentadeca-1(15),2,4,6,11,13-hexaen-5-yl)-N3-[(7S)-7-pyrrolidin-1-yl-6,7,8,9-tetrahydro-5H-benzo[7]annulen-3-yl]-1,2,4-triazole-3,5-diamine

> <PUBCHEM_IUPAC_TRADITIONAL_NAME>
[5-amino-1-(3,4-diazatricyclo[9.4.0.02,7]pentadeca-1(15),2,4,6,11,13-hexaen-5-yl)-1,2,4-triazol-3-yl]-[(7S)-7-pyrrolidino-6,7,8,9-tetrahydro-5H-benzocyclohepten-3-yl]amine

> <PUBCHEM_IUPAC_INCHI>
InChI=1S/C30H34N8/c31-29-33-30(32-24-13-10-20-11-14-25(15-12-22(20)18-24)37-16-3-4-17-37)36-38(29)27-19-23-8-5-7-21-6-1-2-9-26(21)28(23)35-34-27/h1-2,6,9-10,13,18-19,25H,3-5,7-8,11-12,14-17H2,(H3,31,32,33,36)/t25-/m0/s1

> <PUBCHEM_IUPAC_INCHIKEY>
KXMZDGSRSGHMMK-VWLOTQADSA-N

> <PUBCHEM_XLOGP3_AA>
5.5

> <PUBCHEM_EXACT_MASS>
506.290643

> <PUBCHEM_MOLECULAR_FORMULA>
C30H34N8

> <PUBCHEM_MOLECULAR_WEIGHT>
506.6

> <PUBCHEM_OPENEYE_CAN_SMILES>
C1CCN(C1)C2CCC3=C(CC2)C=C(C=C3)NC4=NN(C(=N4)N)C5=NN=C6C(=C5)CCCC7=CC=CC=C76

> <PUBCHEM_OPENEYE_ISO_SMILES>
C1CCN(C1)[C@H]2CCC3=C(CC2)C=C(C=C3)NC4=NN(C(=N4)N)C5=NN=C6C(=C5)CCCC7=CC=CC=C76

> <PUBCHEM_CACTVS_TPSA>
97.8

> <PUBCHEM_MONOISOTOPIC_WEIGHT>
506.290643

> <PUBCHEM_TOTAL_CHARGE>
0

> <PUBCHEM_HEAVY_ATOM_COUNT>
38

> <PUBCHEM_ATOM_DEF_STEREO_COUNT>
1

> <PUBCHEM_ATOM_UDEF_STEREO_COUNT>
0

> <PUBCHEM_BOND_DEF_STEREO_COUNT>
0

> <PUBCHEM_BOND_UDEF_STEREO_COUNT>
0

> <PUBCHEM_ISOTOPIC_ATOM_COUNT>
0

> <PUBCHEM_COMPONENT_COUNT>
1

> <PUBCHEM_CACTVS_TAUTO_COUNT>
-1

> <PUBCHEM_COORDINATE_TYPE>
1
5
255

> <PUBCHEM_BONDANNOTATIONS>
9  1  6
18  19  8
18  20  8
19  21  8
20  22  8
21  23  8
22  23  8
28  31  8
28  32  8
29  30  8
29  34  8
3  36  8
3  4  8
30  35  8
32  33  8
34  37  8
35  38  8
37  38  8
4  27  8
5  27  8
5  36  8
6  31  8
6  7  8
7  33  8

$$$$
