49867936
  -OEChem-05242006132D

 57 58  0     1  0  0  0  0  0999 V2000
    5.4641   -4.8660    0.0000 Cl  0  0  0  0  0  0  0  0  0  0  0  0
    2.0000   -2.8660    0.0000 Cl  0  0  0  0  0  0  0  0  0  0  0  0
    6.3301    2.6340    0.0000 O   0  0  0  0  0  0  0  0  0  0  0  0
    5.4641    1.1340    0.0000 O   0  0  0  0  0  0  0  0  0  0  0  0
    6.9641    4.0000    0.0000 O   0  0  0  0  0  0  0  0  0  0  0  0
    3.7320    1.1340    0.0000 O   0  0  0  0  0  0  0  0  0  0  0  0
    5.4641    4.8660    0.0000 O   0  0  0  0  0  0  0  0  0  0  0  0
    3.4641    4.8660    0.0000 O   0  0  0  0  0  0  0  0  0  0  0  0
    5.4641    0.1340    0.0000 O   0  0  0  0  0  0  0  0  0  0  0  0
    3.4641    3.1340    0.0000 O   0  0  0  0  0  0  0  0  0  0  0  0
    6.3301   -3.3660    0.0000 O   0  0  0  0  0  0  0  0  0  0  0  0
    7.1962    0.1340    0.0000 N   0  0  0  0  0  0  0  0  0  0  0  0
    5.4641   -1.8660    0.0000 N   0  0  0  0  0  0  0  0  0  0  0  0
    7.1962    1.1340    0.0000 C   0  0  1  0  0  0  0  0  0  0  0  0
    8.0622    1.6340    0.0000 C   0  0  0  0  0  0  0  0  0  0  0  0
    5.4641    3.1340    0.0000 C   0  0  3  0  0  0  0  0  0  0  0  0
    8.9282    1.1340    0.0000 C   0  0  0  0  0  0  0  0  0  0  0  0
    4.5981    2.6340    0.0000 C   0  0  0  0  0  0  0  0  0  0  0  0
    4.9641    4.0000    0.0000 C   0  0  0  0  0  0  0  0  0  0  0  0
    9.7942    1.6340    0.0000 C   0  0  0  0  0  0  0  0  0  0  0  0
    8.9282    0.1340    0.0000 C   0  0  0  0  0  0  0  0  0  0  0  0
    4.5981    1.6340    0.0000 C   0  0  0  0  0  0  0  0  0  0  0  0
    5.9641    4.0000    0.0000 C   0  0  0  0  0  0  0  0  0  0  0  0
    6.3301   -0.3660    0.0000 C   0  0  0  0  0  0  0  0  0  0  0  0
    3.9641    4.0000    0.0000 C   0  0  0  0  0  0  0  0  0  0  0  0
    6.3301   -1.3660    0.0000 C   0  0  0  0  0  0  0  0  0  0  0  0
    5.4641   -2.8660    0.0000 C   0  0  0  0  0  0  0  0  0  0  0  0
    4.5981   -3.3660    0.0000 C   0  0  0  0  0  0  0  0  0  0  0  0
    4.5981   -4.3660    0.0000 C   0  0  0  0  0  0  0  0  0  0  0  0
    3.7320   -2.8660    0.0000 C   0  0  0  0  0  0  0  0  0  0  0  0
    2.8660   -3.3660    0.0000 C   0  0  0  0  0  0  0  0  0  0  0  0
    3.7320   -4.8660    0.0000 C   0  0  0  0  0  0  0  0  0  0  0  0
    2.8660   -4.3660    0.0000 C   0  0  0  0  0  0  0  0  0  0  0  0
    6.3301    1.6340    0.0000 B   0  0  0  0  0  0  0  0  0  0  0  0
    6.6592    0.8240    0.0000 H   0  0  0  0  0  0  0  0  0  0  0  0
    8.4607    2.1089    0.0000 H   0  0  0  0  0  0  0  0  0  0  0  0
    7.6636    2.1089    0.0000 H   0  0  0  0  0  0  0  0  0  0  0  0
    9.4651    0.8240    0.0000 H   0  0  0  0  0  0  0  0  0  0  0  0
    4.3860    3.2166    0.0000 H   0  0  0  0  0  0  0  0  0  0  0  0
    3.9875    2.5263    0.0000 H   0  0  0  0  0  0  0  0  0  0  0  0
    5.5467    4.2120    0.0000 H   0  0  0  0  0  0  0  0  0  0  0  0
    4.8564    4.6106    0.0000 H   0  0  0  0  0  0  0  0  0  0  0  0
    7.7331   -0.1760    0.0000 H   0  0  0  0  0  0  0  0  0  0  0  0
   10.1042    1.0970    0.0000 H   0  0  0  0  0  0  0  0  0  0  0  0
   10.3312    1.9440    0.0000 H   0  0  0  0  0  0  0  0  0  0  0  0
    9.4842    2.1709    0.0000 H   0  0  0  0  0  0  0  0  0  0  0  0
    8.3082    0.1340    0.0000 H   0  0  0  0  0  0  0  0  0  0  0  0
    8.9282   -0.4860    0.0000 H   0  0  0  0  0  0  0  0  0  0  0  0
    9.5482    0.1340    0.0000 H   0  0  0  0  0  0  0  0  0  0  0  0
    6.5422   -1.9486    0.0000 H   0  0  0  0  0  0  0  0  0  0  0  0
    6.9407   -1.2584    0.0000 H   0  0  0  0  0  0  0  0  0  0  0  0
    7.2741    4.5369    0.0000 H   0  0  0  0  0  0  0  0  0  0  0  0
    4.9272   -1.5560    0.0000 H   0  0  0  0  0  0  0  0  0  0  0  0
    2.8441    4.8660    0.0000 H   0  0  0  0  0  0  0  0  0  0  0  0
    3.7320   -2.2460    0.0000 H   0  0  0  0  0  0  0  0  0  0  0  0
    3.7320   -5.4860    0.0000 H   0  0  0  0  0  0  0  0  0  0  0  0
    2.3291   -4.6760    0.0000 H   0  0  0  0  0  0  0  0  0  0  0  0
  1 29  1  0  0  0  0
  2 31  1  0  0  0  0
  3 16  1  0  0  0  0
  3 34  1  0  0  0  0
  4 22  1  0  0  0  0
  4 34  1  0  0  0  0
  5 23  1  0  0  0  0
  5 52  1  0  0  0  0
  6 22  2  0  0  0  0
  7 23  2  0  0  0  0
  8 25  1  0  0  0  0
  8 54  1  0  0  0  0
  9 24  2  0  0  0  0
 10 25  2  0  0  0  0
 11 27  2  0  0  0  0
 14 12  1  6  0  0  0
 12 24  1  0  0  0  0
 12 43  1  0  0  0  0
 13 26  1  0  0  0  0
 13 27  1  0  0  0  0
 13 53  1  0  0  0  0
 14 15  1  0  0  0  0
 14 34  1  0  0  0  0
 14 35  1  0  0  0  0
 15 17  1  0  0  0  0
 15 36  1  0  0  0  0
 15 37  1  0  0  0  0
 16 18  1  0  0  0  0
 16 19  1  0  0  0  0
 16 23  1  0  0  0  0
 17 20  1  0  0  0  0
 17 21  1  0  0  0  0
 17 38  1  0  0  0  0
 18 22  1  0  0  0  0
 18 39  1  0  0  0  0
 18 40  1  0  0  0  0
 19 25  1  0  0  0  0
 19 41  1  0  0  0  0
 19 42  1  0  0  0  0
 20 44  1  0  0  0  0
 20 45  1  0  0  0  0
 20 46  1  0  0  0  0
 21 47  1  0  0  0  0
 21 48  1  0  0  0  0
 21 49  1  0  0  0  0
 24 26  1  0  0  0  0
 26 50  1  0  0  0  0
 26 51  1  0  0  0  0
 27 28  1  0  0  0  0
 28 29  2  0  0  0  0
 28 30  1  0  0  0  0
 29 32  1  0  0  0  0
 30 31  2  0  0  0  0
 30 55  1  0  0  0  0
 31 33  1  0  0  0  0
 32 33  2  0  0  0  0
 32 56  1  0  0  0  0
 33 57  1  0  0  0  0
M  END
> <PUBCHEM_COMPOUND_CID>
49867936

> <PUBCHEM_COMPOUND_CANONICALIZED>
1

> <PUBCHEM_CACTVS_COMPLEXITY>
815

> <PUBCHEM_CACTVS_HBOND_ACCEPTOR>
9

> <PUBCHEM_CACTVS_HBOND_DONOR>
4

> <PUBCHEM_CACTVS_ROTATABLE_BOND>
10

> <PUBCHEM_CACTVS_SUBSKEYS>
AAADceJ7PAAGAAAAAAAAAAAAAAAAAAAAAAA0QAAAAAAAAAABAAAoHgIQCAAADUbBmCQyCILAAgCIAiHSGAKCAAAkBQAIiIHIBsgJYDaBlzGUYQhltgCJjYfbrgCOAAAQIAABAAAAACBAAAIAAAAAAAAAAA==

> <PUBCHEM_IUPAC_OPENEYE_NAME>
4-(carboxymethyl)-2-[(1R)-1-[[2-[(2,5-dichlorobenzoyl)amino]acetyl]amino]-3-methyl-butyl]-6-oxo-1,3,2-dioxaborinane-4-carboxylic acid

> <PUBCHEM_IUPAC_CAS_NAME>
4-(carboxymethyl)-2-[(1R)-1-[[2-[[(2,5-dichlorophenyl)-oxomethyl]amino]-1-oxoethyl]amino]-3-methylbutyl]-6-oxo-1,3,2-dioxaborinane-4-carboxylic acid

> <PUBCHEM_IUPAC_NAME_MARKUP>
4-(carboxymethyl)-2-[(1<I>R</I>)-1-[[2-[(2,5-dichlorobenzoyl)amino]acetyl]amino]-3-methylbutyl]-6-oxo-1,3,2-dioxaborinane-4-carboxylic acid

> <PUBCHEM_IUPAC_NAME>
4-(carboxymethyl)-2-[(1R)-1-[[2-[(2,5-dichlorobenzoyl)amino]acetyl]amino]-3-methylbutyl]-6-oxo-1,3,2-dioxaborinane-4-carboxylic acid

> <PUBCHEM_IUPAC_SYSTEMATIC_NAME>
2-[(1R)-1-[2-[[2,5-bis(chloranyl)phenyl]carbonylamino]ethanoylamino]-3-methyl-butyl]-4-(2-hydroxy-2-oxoethyl)-6-oxidanylidene-1,3,2-dioxaborinane-4-carboxylic acid

> <PUBCHEM_IUPAC_TRADITIONAL_NAME>
4-(carboxymethyl)-2-[(1R)-1-[[2-[(2,5-dichlorobenzoyl)amino]acetyl]amino]-3-methyl-butyl]-6-keto-1,3,2-dioxaborinane-4-carboxylic acid

> <PUBCHEM_IUPAC_INCHI>
InChI=1S/C20H23BCl2N2O9/c1-10(2)5-14(21-33-17(29)8-20(34-21,19(31)32)7-16(27)28)25-15(26)9-24-18(30)12-6-11(22)3-4-13(12)23/h3-4,6,10,14H,5,7-9H2,1-2H3,(H,24,30)(H,25,26)(H,27,28)(H,31,32)/t14-,20?/m0/s1

> <PUBCHEM_IUPAC_INCHIKEY>
YTXSYWAKVMZICI-PVCZSOGJSA-N

> <PUBCHEM_EXACT_MASS>
516.087366

> <PUBCHEM_MOLECULAR_FORMULA>
C20H23BCl2N2O9

> <PUBCHEM_MOLECULAR_WEIGHT>
517.1

> <PUBCHEM_OPENEYE_CAN_SMILES>
B1(OC(=O)CC(O1)(CC(=O)O)C(=O)O)C(CC(C)C)NC(=O)CNC(=O)C2=C(C=CC(=C2)Cl)Cl

> <PUBCHEM_OPENEYE_ISO_SMILES>
B1(OC(=O)CC(O1)(CC(=O)O)C(=O)O)[C@H](CC(C)C)NC(=O)CNC(=O)C2=C(C=CC(=C2)Cl)Cl

> <PUBCHEM_CACTVS_TPSA>
168

> <PUBCHEM_MONOISOTOPIC_WEIGHT>
516.087366

> <PUBCHEM_TOTAL_CHARGE>
0

> <PUBCHEM_HEAVY_ATOM_COUNT>
34

> <PUBCHEM_ATOM_DEF_STEREO_COUNT>
1

> <PUBCHEM_ATOM_UDEF_STEREO_COUNT>
1

> <PUBCHEM_BOND_DEF_STEREO_COUNT>
0

> <PUBCHEM_BOND_UDEF_STEREO_COUNT>
0

> <PUBCHEM_ISOTOPIC_ATOM_COUNT>
0

> <PUBCHEM_COMPONENT_COUNT>
1

> <PUBCHEM_CACTVS_TAUTO_COUNT>
-1

> <PUBCHEM_COORDINATE_TYPE>
1
5
255

> <PUBCHEM_BONDANNOTATIONS>
14  12  6
16  19  3
28  29  8
28  30  8
29  32  8
30  31  8
31  33  8
32  33  8

$$$$
