52361231
  -OEChem-05242006132D

 40 41  0     1  0  0  0  0  0999 V2000
    6.5292    2.7074    0.0000 O   0  0  0  0  0  0  0  0  0  0  0  0
    4.5981   -0.4589    0.0000 N   0  0  3  0  0  0  0  0  0  0  0  0
    5.0981    1.7317    0.0000 N   0  0  0  0  0  0  0  0  0  0  0  0
    3.6971   -0.0250    0.0000 C   0  0  0  0  0  0  0  0  0  0  0  0
    5.4990   -0.0250    0.0000 C   0  0  0  0  0  0  0  0  0  0  0  0
    3.4746    0.9499    0.0000 C   0  0  0  0  0  0  0  0  0  0  0  0
    5.7216    0.9499    0.0000 C   0  0  0  0  0  0  0  0  0  0  0  0
    4.0981    1.7317    0.0000 C   0  0  0  0  0  0  0  0  0  0  0  0
    4.5981   -1.4589    0.0000 C   0  0  0  0  0  0  0  0  0  0  0  0
    3.7320   -1.9589    0.0000 C   0  0  0  0  0  0  0  0  0  0  0  0
    5.5320    2.6327    0.0000 C   0  0  0  0  0  0  0  0  0  0  0  0
    2.8660   -1.4589    0.0000 C   0  0  0  0  0  0  0  0  0  0  0  0
    3.7320   -2.9589    0.0000 C   0  0  0  0  0  0  0  0  0  0  0  0
    4.9686    3.4589    0.0000 C   0  0  0  0  0  0  0  0  0  0  0  0
    2.0000   -1.9589    0.0000 C   0  0  0  0  0  0  0  0  0  0  0  0
    2.8660   -0.4589    0.0000 C   0  0  0  0  0  0  0  0  0  0  0  0
    2.8660   -3.4589    0.0000 C   0  0  0  0  0  0  0  0  0  0  0  0
    2.0000   -2.9589    0.0000 C   0  0  0  0  0  0  0  0  0  0  0  0
    3.0771   -0.0250    0.0000 H   0  0  0  0  0  0  0  0  0  0  0  0
    3.5591   -0.6295    0.0000 H   0  0  0  0  0  0  0  0  0  0  0  0
    5.6370   -0.6295    0.0000 H   0  0  0  0  0  0  0  0  0  0  0  0
    6.1190   -0.0250    0.0000 H   0  0  0  0  0  0  0  0  0  0  0  0
    3.0880    1.4346    0.0000 H   0  0  0  0  0  0  0  0  0  0  0  0
    2.9160    0.6809    0.0000 H   0  0  0  0  0  0  0  0  0  0  0  0
    6.2802    0.6809    0.0000 H   0  0  0  0  0  0  0  0  0  0  0  0
    6.1081    1.4346    0.0000 H   0  0  0  0  0  0  0  0  0  0  0  0
    4.2360    2.3362    0.0000 H   0  0  0  0  0  0  0  0  0  0  0  0
    3.5395    2.0007    0.0000 H   0  0  0  0  0  0  0  0  0  0  0  0
    4.8101   -2.0415    0.0000 H   0  0  0  0  0  0  0  0  0  0  0  0
    5.2087   -1.3513    0.0000 H   0  0  0  0  0  0  0  0  0  0  0  0
    4.2690   -3.2689    0.0000 H   0  0  0  0  0  0  0  0  0  0  0  0
    5.4809    3.8082    0.0000 H   0  0  0  0  0  0  0  0  0  0  0  0
    4.6194    3.9712    0.0000 H   0  0  0  0  0  0  0  0  0  0  0  0
    4.4564    3.1097    0.0000 H   0  0  0  0  0  0  0  0  0  0  0  0
    1.4631   -1.6489    0.0000 H   0  0  0  0  0  0  0  0  0  0  0  0
    3.4860   -0.4589    0.0000 H   0  0  0  0  0  0  0  0  0  0  0  0
    2.8660    0.1611    0.0000 H   0  0  0  0  0  0  0  0  0  0  0  0
    2.2460   -0.4589    0.0000 H   0  0  0  0  0  0  0  0  0  0  0  0
    2.8660   -4.0789    0.0000 H   0  0  0  0  0  0  0  0  0  0  0  0
    1.4631   -3.2689    0.0000 H   0  0  0  0  0  0  0  0  0  0  0  0
  1 11  2  0  0  0  0
  2  4  1  0  0  0  0
  2  5  1  0  0  0  0
  2  9  1  0  0  0  0
  3  7  1  0  0  0  0
  3  8  1  0  0  0  0
  3 11  1  0  0  0  0
  4  6  1  0  0  0  0
  4 19  1  0  0  0  0
  4 20  1  0  0  0  0
  5  7  1  0  0  0  0
  5 21  1  0  0  0  0
  5 22  1  0  0  0  0
  6  8  1  0  0  0  0
  6 23  1  0  0  0  0
  6 24  1  0  0  0  0
  7 25  1  0  0  0  0
  7 26  1  0  0  0  0
  8 27  1  0  0  0  0
  8 28  1  0  0  0  0
  9 10  1  0  0  0  0
  9 29  1  0  0  0  0
  9 30  1  0  0  0  0
 10 12  1  0  0  0  0
 10 13  2  0  0  0  0
 11 14  1  0  0  0  0
 12 15  2  0  0  0  0
 12 16  1  0  0  0  0
 13 17  1  0  0  0  0
 13 31  1  0  0  0  0
 14 32  1  0  0  0  0
 14 33  1  0  0  0  0
 14 34  1  0  0  0  0
 15 18  1  0  0  0  0
 15 35  1  0  0  0  0
 16 36  1  0  0  0  0
 16 37  1  0  0  0  0
 16 38  1  0  0  0  0
 17 18  2  0  0  0  0
 17 39  1  0  0  0  0
 18 40  1  0  0  0  0
M  END
> <PUBCHEM_COMPOUND_CID>
52361231

> <PUBCHEM_COMPOUND_CANONICALIZED>
1

> <PUBCHEM_CACTVS_COMPLEXITY>
280

> <PUBCHEM_CACTVS_HBOND_ACCEPTOR>
2

> <PUBCHEM_CACTVS_HBOND_DONOR>
0

> <PUBCHEM_CACTVS_ROTATABLE_BOND>
2

> <PUBCHEM_CACTVS_SUBSKEYS>
AAADceBzIAAAAAAAAAAAAAAAAAAAAAAAAAAwAAAABYAAAAABAAAAHgAAAAAADADBmAQyAIMAAACIAiFSEACCAAAgAAAIiAAIBIgIYCKA0RGUIAhghgCIiAcQgIAOgAAAAAAQAAAAAAAAACAAAAAAAAAAAA==

> <PUBCHEM_IUPAC_OPENEYE_NAME>
1-[4-(o-tolylmethyl)-1,4-diazepan-1-yl]ethanone

> <PUBCHEM_IUPAC_CAS_NAME>
1-[4-[(2-methylphenyl)methyl]-1,4-diazepan-1-yl]ethanone

> <PUBCHEM_IUPAC_NAME_MARKUP>
1-[4-[(2-methylphenyl)methyl]-1,4-diazepan-1-yl]ethanone

> <PUBCHEM_IUPAC_NAME>
1-[4-[(2-methylphenyl)methyl]-1,4-diazepan-1-yl]ethanone

> <PUBCHEM_IUPAC_SYSTEMATIC_NAME>
1-[4-[(2-methylphenyl)methyl]-1,4-diazepan-1-yl]ethanone

> <PUBCHEM_IUPAC_TRADITIONAL_NAME>
1-[4-(2-methylbenzyl)-1,4-diazepan-1-yl]ethanone

> <PUBCHEM_IUPAC_INCHI>
InChI=1S/C15H22N2O/c1-13-6-3-4-7-15(13)12-16-8-5-9-17(11-10-16)14(2)18/h3-4,6-7H,5,8-12H2,1-2H3

> <PUBCHEM_IUPAC_INCHIKEY>
ADMDDIGRGVTLSU-UHFFFAOYSA-N

> <PUBCHEM_XLOGP3_AA>
1.8

> <PUBCHEM_EXACT_MASS>
246.173213

> <PUBCHEM_MOLECULAR_FORMULA>
C15H22N2O

> <PUBCHEM_MOLECULAR_WEIGHT>
246.35

> <PUBCHEM_OPENEYE_CAN_SMILES>
CC1=CC=CC=C1CN2CCCN(CC2)C(=O)C

> <PUBCHEM_OPENEYE_ISO_SMILES>
CC1=CC=CC=C1CN2CCCN(CC2)C(=O)C

> <PUBCHEM_CACTVS_TPSA>
23.6

> <PUBCHEM_MONOISOTOPIC_WEIGHT>
246.173213

> <PUBCHEM_TOTAL_CHARGE>
0

> <PUBCHEM_HEAVY_ATOM_COUNT>
18

> <PUBCHEM_ATOM_DEF_STEREO_COUNT>
0

> <PUBCHEM_ATOM_UDEF_STEREO_COUNT>
0

> <PUBCHEM_BOND_DEF_STEREO_COUNT>
0

> <PUBCHEM_BOND_UDEF_STEREO_COUNT>
0

> <PUBCHEM_ISOTOPIC_ATOM_COUNT>
0

> <PUBCHEM_COMPONENT_COUNT>
1

> <PUBCHEM_CACTVS_TAUTO_COUNT>
-1

> <PUBCHEM_COORDINATE_TYPE>
1
5
255

> <PUBCHEM_BONDANNOTATIONS>
10  12  8
10  13  8
12  15  8
13  17  8
15  18  8
17  18  8

$$$$
