5282448
  -OEChem-05242006122D

144148  0     1  0  0  0  0  0999 V2000
    4.8880    2.0776    0.0000 S   0  0  0  0  0  0  0  0  0  0  0  0
    3.9032   -0.7488    0.0000 S   0  0  0  0  0  0  0  0  0  0  0  0
   10.9502    2.5776    0.0000 S   0  0  0  0  0  0  0  0  0  0  0  0
    8.3521    8.0776    0.0000 S   0  0  0  0  0  0  0  0  0  0  0  0
    3.1200   -7.9846    0.0000 S   0  0  0  0  0  0  0  0  0  0  0  0
    9.2181   -2.4224    0.0000 S   0  0  0  0  0  0  0  0  0  0  0  0
   13.5482    5.0776    0.0000 S   0  0  0  0  0  0  0  0  0  0  0  0
    9.1201   -7.9846    0.0000 S   0  0  0  0  0  0  0  0  0  0  0  0
    7.4861    0.5776    0.0000 O   0  0  0  0  0  0  0  0  0  0  0  0
    6.6200    2.0776    0.0000 O   0  0  0  0  0  0  0  0  0  0  0  0
    6.6200   -1.9224    0.0000 O   0  0  0  0  0  0  0  0  0  0  0  0
    8.3521    4.0776    0.0000 O   0  0  0  0  0  0  0  0  0  0  0  0
   10.0841    4.0776    0.0000 O   0  0  0  0  0  0  0  0  0  0  0  0
    4.8880   -0.9224    0.0000 O   0  0  0  0  0  0  0  0  0  0  0  0
    5.1200   -2.7884    0.0000 O   0  0  0  0  0  0  0  0  0  0  0  0
    4.6200   -5.3865    0.0000 O   0  0  0  0  0  0  0  0  0  0  0  0
   10.9502    6.5776    0.0000 O   0  0  0  0  0  0  0  0  0  0  0  0
    6.1201   -6.2526    0.0000 O   0  0  0  0  0  0  0  0  0  0  0  0
   10.0841    2.0776    0.0000 O   0  0  0  0  0  0  0  0  0  0  0  0
    8.3521    1.0776    0.0000 O   0  0  0  0  0  0  0  0  0  0  0  0
    7.6201   -3.6544    0.0000 O   0  0  0  0  0  0  0  0  0  0  0  0
    6.6201   -5.3865    0.0000 O   0  0  0  0  0  0  0  0  0  0  0  0
    8.3521   -1.9224    0.0000 O   0  0  0  0  0  0  0  0  0  0  0  0
    8.3521    5.0776    0.0000 O   0  0  0  0  0  0  0  0  0  0  0  0
   10.0841    8.0776    0.0000 O   0  0  0  0  0  0  0  0  0  0  0  0
    4.6200   -8.8506    0.0000 O   0  0  0  0  0  0  0  0  0  0  0  0
    6.6201   -8.8506    0.0000 O   0  0  0  0  0  0  0  0  0  0  0  0
   12.6822    5.5776    0.0000 O   0  0  0  0  0  0  0  0  0  0  0  0
    6.6200    5.0776    0.0000 O   0  0  0  0  0  0  0  0  0  0  0  0
    3.8880    2.0776    0.0000 O   0  0  0  0  0  0  0  0  0  0  0  0
    5.7540    3.5776    0.0000 O   0  0  0  0  0  0  0  0  0  0  0  0
    4.8880    3.0776    0.0000 O   0  0  0  0  0  0  0  0  0  0  0  0
    5.8880    2.0776    0.0000 O   0  0  0  0  0  0  0  0  0  0  0  0
    3.1200   -4.5204    0.0000 O   0  0  0  0  0  0  0  0  0  0  0  0
    3.2604   -1.5148    0.0000 O   0  0  0  0  0  0  0  0  0  0  0  0
    8.1201   -7.9846    0.0000 O   0  0  0  0  0  0  0  0  0  0  0  0
    3.1200   -2.7885    0.0000 O   0  0  0  0  0  0  0  0  0  0  0  0
    4.0768    0.2360    0.0000 O   0  0  0  0  0  0  0  0  0  0  0  0
    2.9184   -0.5751    0.0000 O   0  0  0  0  0  0  0  0  0  0  0  0
   11.8162    3.0776    0.0000 O   0  0  0  0  0  0  0  0  0  0  0  0
    8.3521    9.0776    0.0000 O   0  0  0  0  0  0  0  0  0  0  0  0
   11.4502    1.7115    0.0000 O   0  0  0  0  0  0  0  0  0  0  0  0
   10.4502    3.4436    0.0000 O   0  0  0  0  0  0  0  0  0  0  0  0
    2.6200   -8.8506    0.0000 O   0  0  0  0  0  0  0  0  0  0  0  0
   10.0841   -2.9224    0.0000 O   0  0  0  0  0  0  0  0  0  0  0  0
    7.3521    8.0776    0.0000 O   0  0  0  0  0  0  0  0  0  0  0  0
    9.3521    8.0776    0.0000 O   0  0  0  0  0  0  0  0  0  0  0  0
    2.2540   -7.4846    0.0000 O   0  0  0  0  0  0  0  0  0  0  0  0
    3.9860   -8.4846    0.0000 O   0  0  0  0  0  0  0  0  0  0  0  0
    8.7181   -3.2885    0.0000 O   0  0  0  0  0  0  0  0  0  0  0  0
    9.7181   -1.5564    0.0000 O   0  0  0  0  0  0  0  0  0  0  0  0
   14.4143    4.5776    0.0000 O   0  0  0  0  0  0  0  0  0  0  0  0
   14.0482    5.9436    0.0000 O   0  0  0  0  0  0  0  0  0  0  0  0
   13.0482    4.2115    0.0000 O   0  0  0  0  0  0  0  0  0  0  0  0
   10.1201   -7.9846    0.0000 O   0  0  0  0  0  0  0  0  0  0  0  0
    9.1201   -8.9846    0.0000 O   0  0  0  0  0  0  0  0  0  0  0  0
    9.1201   -6.9846    0.0000 O   0  0  0  0  0  0  0  0  0  0  0  0
    4.8880    1.0776    0.0000 N   0  0  0  0  0  0  0  0  0  0  0  0
    8.3521    7.0776    0.0000 N   0  0  0  0  0  0  0  0  0  0  0  0
    3.6200   -7.1186    0.0000 N   0  0  0  0  0  0  0  0  0  0  0  0
    6.6200   -0.9224    0.0000 C   0  0  1  0  0  0  0  0  0  0  0  0
    5.7540   -0.4224    0.0000 C   0  0  1  0  0  0  0  0  0  0  0  0
    5.7540    0.5776    0.0000 C   0  0  2  0  0  0  0  0  0  0  0  0
    6.6200    1.0776    0.0000 C   0  0  2  0  0  0  0  0  0  0  0  0
    7.4861   -0.4224    0.0000 C   0  0  1  0  0  0  0  0  0  0  0  0
    7.4861    2.5776    0.0000 C   0  0  1  0  0  0  0  0  0  0  0  0
    8.3521    2.0776    0.0000 C   0  0  1  0  0  0  0  0  0  0  0  0
    9.2181    2.5776    0.0000 C   0  0  2  0  0  0  0  0  0  0  0  0
    6.1200   -2.7884    0.0000 C   0  0  2  0  0  0  0  0  0  0  0  0
    9.2181    3.5776    0.0000 C   0  0  1  0  0  0  0  0  0  0  0  0
    7.4861    3.5776    0.0000 C   0  0  2  0  0  0  0  0  0  0  0  0
    5.1200   -4.5205    0.0000 C   0  0  1  0  0  0  0  0  0  0  0  0
    6.6201   -3.6545    0.0000 C   0  0  1  0  0  0  0  0  0  0  0  0
    6.1200   -4.5205    0.0000 C   0  0  1  0  0  0  0  0  0  0  0  0
   10.0841    5.0776    0.0000 C   0  0  1  0  0  0  0  0  0  0  0  0
    4.6200   -3.6544    0.0000 C   0  0  1  0  0  0  0  0  0  0  0  0
    9.2181    5.5776    0.0000 C   0  0  1  0  0  0  0  0  0  0  0  0
    8.3521   -0.9224    0.0000 C   0  0  0  0  0  0  0  0  0  0  0  0
   10.9502    5.5776    0.0000 C   0  0  1  0  0  0  0  0  0  0  0  0
    9.2181    6.5776    0.0000 C   0  0  2  0  0  0  0  0  0  0  0  0
    5.1200   -6.2526    0.0000 C   0  0  1  0  0  0  0  0  0  0  0  0
    4.6200   -7.1186    0.0000 C   0  0  1  0  0  0  0  0  0  0  0  0
    5.1200   -7.9846    0.0000 C   0  0  2  0  0  0  0  0  0  0  0  0
   10.0841    7.0776    0.0000 C   0  0  2  0  0  0  0  0  0  0  0  0
    6.1201   -7.9846    0.0000 C   0  0  1  0  0  0  0  0  0  0  0  0
    6.6201   -7.1186    0.0000 C   0  0  1  0  0  0  0  0  0  0  0  0
    6.6200    4.0776    0.0000 C   0  0  0  0  0  0  0  0  0  0  0  0
   11.8162    5.0776    0.0000 C   0  0  0  0  0  0  0  0  0  0  0  0
    3.6200   -3.6544    0.0000 C   0  0  0  0  0  0  0  0  0  0  0  0
    7.6201   -7.1186    0.0000 C   0  0  0  0  0  0  0  0  0  0  0  0
   10.9502    8.5776    0.0000 C   0  0  0  0  0  0  0  0  0  0  0  0
    7.1570   -1.2324    0.0000 H   0  0  0  0  0  0  0  0  0  0  0  0
    5.7540   -1.0424    0.0000 H   0  0  0  0  0  0  0  0  0  0  0  0
    5.7540    1.1976    0.0000 H   0  0  0  0  0  0  0  0  0  0  0  0
    6.0831    1.3876    0.0000 H   0  0  0  0  0  0  0  0  0  0  0  0
    8.0230   -0.1124    0.0000 H   0  0  0  0  0  0  0  0  0  0  0  0
    6.9491    2.8876    0.0000 H   0  0  0  0  0  0  0  0  0  0  0  0
    7.8152    1.7676    0.0000 H   0  0  0  0  0  0  0  0  0  0  0  0
    9.7550    2.8876    0.0000 H   0  0  0  0  0  0  0  0  0  0  0  0
    5.8100   -2.2515    0.0000 H   0  0  0  0  0  0  0  0  0  0  0  0
    9.2181    4.1976    0.0000 H   0  0  0  0  0  0  0  0  0  0  0  0
    7.4861    4.1976    0.0000 H   0  0  0  0  0  0  0  0  0  0  0  0
    4.5000   -4.5205    0.0000 H   0  0  0  0  0  0  0  0  0  0  0  0
    6.9301   -4.1914    0.0000 H   0  0  0  0  0  0  0  0  0  0  0  0
    5.8101   -5.0574    0.0000 H   0  0  0  0  0  0  0  0  0  0  0  0
    9.5472    4.7676    0.0000 H   0  0  0  0  0  0  0  0  0  0  0  0
    4.3100   -3.1175    0.0000 H   0  0  0  0  0  0  0  0  0  0  0  0
    8.6812    5.8876    0.0000 H   0  0  0  0  0  0  0  0  0  0  0  0
    8.9627   -1.0301    0.0000 H   0  0  0  0  0  0  0  0  0  0  0  0
    8.5641   -0.3398    0.0000 H   0  0  0  0  0  0  0  0  0  0  0  0
    4.2774    0.9699    0.0000 H   0  0  0  0  0  0  0  0  0  0  0  0
   11.4871    5.8876    0.0000 H   0  0  0  0  0  0  0  0  0  0  0  0
    9.2181    7.1976    0.0000 H   0  0  0  0  0  0  0  0  0  0  0  0
    4.5000   -6.2526    0.0000 H   0  0  0  0  0  0  0  0  0  0  0  0
    4.3100   -6.5816    0.0000 H   0  0  0  0  0  0  0  0  0  0  0  0
    4.5000   -7.9846    0.0000 H   0  0  0  0  0  0  0  0  0  0  0  0
    9.5472    7.3876    0.0000 H   0  0  0  0  0  0  0  0  0  0  0  0
    5.8101   -8.5216    0.0000 H   0  0  0  0  0  0  0  0  0  0  0  0
    6.9301   -6.5816    0.0000 H   0  0  0  0  0  0  0  0  0  0  0  0
   11.4177    4.6026    0.0000 H   0  0  0  0  0  0  0  0  0  0  0  0
   12.2147    4.6026    0.0000 H   0  0  0  0  0  0  0  0  0  0  0  0
    8.8890    0.7676    0.0000 H   0  0  0  0  0  0  0  0  0  0  0  0
    7.8152    6.7676    0.0000 H   0  0  0  0  0  0  0  0  0  0  0  0
    7.9301   -4.1914    0.0000 H   0  0  0  0  0  0  0  0  0  0  0  0
    3.3100   -6.5816    0.0000 H   0  0  0  0  0  0  0  0  0  0  0  0
    7.2401   -5.3865    0.0000 H   0  0  0  0  0  0  0  0  0  0  0  0
    8.2027   -6.9065    0.0000 H   0  0  0  0  0  0  0  0  0  0  0  0
    7.5124   -6.5080    0.0000 H   0  0  0  0  0  0  0  0  0  0  0  0
    7.8152    5.3876    0.0000 H   0  0  0  0  0  0  0  0  0  0  0  0
    4.9300   -9.3876    0.0000 H   0  0  0  0  0  0  0  0  0  0  0  0
    6.3101   -9.3876    0.0000 H   0  0  0  0  0  0  0  0  0  0  0  0
    6.0831    5.3876    0.0000 H   0  0  0  0  0  0  0  0  0  0  0  0
    3.5780    2.6145    0.0000 H   0  0  0  0  0  0  0  0  0  0  0  0
    2.5000   -4.5204    0.0000 H   0  0  0  0  0  0  0  0  0  0  0  0
    3.4725   -2.0974    0.0000 H   0  0  0  0  0  0  0  0  0  0  0  0
   11.2602    8.0406    0.0000 H   0  0  0  0  0  0  0  0  0  0  0  0
   11.4871    8.8876    0.0000 H   0  0  0  0  0  0  0  0  0  0  0  0
   10.6402    9.1145    0.0000 H   0  0  0  0  0  0  0  0  0  0  0  0
   12.3531    2.7676    0.0000 H   0  0  0  0  0  0  0  0  0  0  0  0
    7.8152    9.3876    0.0000 H   0  0  0  0  0  0  0  0  0  0  0  0
    2.0000   -8.8506    0.0000 H   0  0  0  0  0  0  0  0  0  0  0  0
   10.0841   -3.5424    0.0000 H   0  0  0  0  0  0  0  0  0  0  0  0
   14.9512    4.8876    0.0000 H   0  0  0  0  0  0  0  0  0  0  0  0
   10.4301   -8.5215    0.0000 H   0  0  0  0  0  0  0  0  0  0  0  0
  1 30  1  0  0  0  0
  1 32  2  0  0  0  0
  1 33  2  0  0  0  0
  1 58  1  0  0  0  0
  2 14  1  0  0  0  0
  2 35  1  0  0  0  0
  2 38  2  0  0  0  0
  2 39  2  0  0  0  0
  3 19  1  0  0  0  0
  3 40  1  0  0  0  0
  3 42  2  0  0  0  0
  3 43  2  0  0  0  0
  4 41  1  0  0  0  0
  4 46  2  0  0  0  0
  4 47  2  0  0  0  0
  4 59  1  0  0  0  0
  5 44  1  0  0  0  0
  5 48  2  0  0  0  0
  5 49  2  0  0  0  0
  5 60  1  0  0  0  0
  6 23  1  0  0  0  0
  6 45  1  0  0  0  0
  6 50  2  0  0  0  0
  6 51  2  0  0  0  0
  7 28  1  0  0  0  0
  7 52  1  0  0  0  0
  7 53  2  0  0  0  0
  7 54  2  0  0  0  0
  8 36  1  0  0  0  0
  8 55  1  0  0  0  0
  8 56  2  0  0  0  0
  8 57  2  0  0  0  0
  9 64  1  0  0  0  0
  9 65  1  0  0  0  0
 64 10  1  1  0  0  0
 66 10  1  6  0  0  0
 61 11  1  1  0  0  0
 69 11  1  1  0  0  0
 12 70  1  0  0  0  0
 12 71  1  0  0  0  0
 70 13  1  1  0  0  0
 75 13  1  1  0  0  0
 62 14  1  6  0  0  0
 15 69  1  0  0  0  0
 15 76  1  0  0  0  0
 72 16  1  6  0  0  0
 81 16  1  1  0  0  0
 17 79  1  0  0  0  0
 17 84  1  0  0  0  0
 18 81  1  0  0  0  0
 18 86  1  0  0  0  0
 68 19  1  6  0  0  0
 67 20  1  1  0  0  0
 20122  1  0  0  0  0
 73 21  1  6  0  0  0
 21124  1  0  0  0  0
 74 22  1  1  0  0  0
 22126  1  0  0  0  0
 23 78  1  0  0  0  0
 77 24  1  6  0  0  0
 24129  1  0  0  0  0
 84 25  1  1  0  0  0
 25 91  1  0  0  0  0
 83 26  1  6  0  0  0
 26130  1  0  0  0  0
 85 27  1  1  0  0  0
 27131  1  0  0  0  0
 28 88  1  0  0  0  0
 29 87  1  0  0  0  0
 29132  1  0  0  0  0
 30133  1  0  0  0  0
 31 87  2  0  0  0  0
 34 89  1  0  0  0  0
 34134  1  0  0  0  0
 35135  1  0  0  0  0
 36 90  1  0  0  0  0
 37 89  2  0  0  0  0
 40139  1  0  0  0  0
 41140  1  0  0  0  0
 44141  1  0  0  0  0
 45142  1  0  0  0  0
 52143  1  0  0  0  0
 55144  1  0  0  0  0
 63 58  1  1  0  0  0
 58111  1  0  0  0  0
 80 59  1  1  0  0  0
 59123  1  0  0  0  0
 82 60  1  1  0  0  0
 60125  1  0  0  0  0
 61 62  1  0  0  0  0
 61 65  1  0  0  0  0
 61 92  1  0  0  0  0
 62 63  1  0  0  0  0
 62 93  1  0  0  0  0
 63 64  1  0  0  0  0
 63 94  1  0  0  0  0
 64 95  1  0  0  0  0
 65 78  1  6  0  0  0
 65 96  1  0  0  0  0
 66 67  1  0  0  0  0
 66 71  1  0  0  0  0
 66 97  1  0  0  0  0
 67 68  1  0  0  0  0
 67 98  1  0  0  0  0
 68 70  1  0  0  0  0
 68 99  1  0  0  0  0
 69 73  1  0  0  0  0
 69100  1  0  0  0  0
 70101  1  0  0  0  0
 71 87  1  6  0  0  0
 71102  1  0  0  0  0
 72 74  1  0  0  0  0
 72 76  1  0  0  0  0
 72103  1  0  0  0  0
 73 74  1  0  0  0  0
 73104  1  0  0  0  0
 74105  1  0  0  0  0
 75 77  1  0  0  0  0
 75 79  1  0  0  0  0
 75106  1  0  0  0  0
 76 89  1  1  0  0  0
 76107  1  0  0  0  0
 77 80  1  0  0  0  0
 77108  1  0  0  0  0
 78109  1  0  0  0  0
 78110  1  0  0  0  0
 79 88  1  6  0  0  0
 79112  1  0  0  0  0
 80 84  1  0  0  0  0
 80113  1  0  0  0  0
 81 82  1  0  0  0  0
 81114  1  0  0  0  0
 82 83  1  0  0  0  0
 82115  1  0  0  0  0
 83 85  1  0  0  0  0
 83116  1  0  0  0  0
 84117  1  0  0  0  0
 85 86  1  0  0  0  0
 85118  1  0  0  0  0
 86 90  1  6  0  0  0
 86119  1  0  0  0  0
 88120  1  0  0  0  0
 88121  1  0  0  0  0
 90127  1  0  0  0  0
 90128  1  0  0  0  0
 91136  1  0  0  0  0
 91137  1  0  0  0  0
 91138  1  0  0  0  0
M  END
> <PUBCHEM_COMPOUND_CID>
5282448

> <PUBCHEM_COMPOUND_CANONICALIZED>
1

> <PUBCHEM_CACTVS_COMPLEXITY>
3450

> <PUBCHEM_CACTVS_HBOND_ACCEPTOR>
52

> <PUBCHEM_CACTVS_HBOND_DONOR>
19

> <PUBCHEM_CACTVS_ROTATABLE_BOND>
30

> <PUBCHEM_CACTVS_SUBSKEYS>
AAADcfB7PgB4AAAAAAAAAAAAAAAAAAAAAAAkSJEiQAAAAAAAAAAAHgAQSAAACDzxgAcCCABABoAIAACQCDIAAAAAAAAAAIFAAAATEBYAgAQjQAAHMAAHAAH6fA1AAAAAAAAAAAAAAAAAAAAAAAAAAAAAAA==

> <PUBCHEM_IUPAC_OPENEYE_NAME>
(2S,3S,4R,5R,6R)-6-[(2R,3R,4R,5R,6R)-6-[(2R,3S,4S,5R,6R)-2-carboxy-4-hydroxy-6-[(2R,3S,4R,5R,6S)-4-hydroxy-6-methoxy-5-(sulfoamino)-2-(sulfooxymethyl)tetrahydropyran-3-yl]oxy-5-sulfooxy-tetrahydropyran-3-yl]oxy-5-(sulfoamino)-4-sulfooxy-2-(sulfooxymethyl)tetrahydropyran-3-yl]oxy-3-[(2R,3R,4R,5S,6R)-4,5-dihydroxy-3-(sulfoamino)-6-(sulfooxymethyl)tetrahydropyran-2-yl]oxy-4,5-dihydroxy-tetrahydropyran-2-carboxylic acid

> <PUBCHEM_IUPAC_CAS_NAME>
(2S,3S,4R,5R,6R)-6-[[(2R,3R,4R,5R,6R)-6-[[(2R,3S,4S,5R,6R)-2-carboxy-4-hydroxy-6-[[(2R,3S,4R,5R,6S)-4-hydroxy-6-methoxy-5-(sulfoamino)-2-(sulfooxymethyl)-3-oxanyl]oxy]-5-sulfooxy-3-oxanyl]oxy]-5-(sulfoamino)-4-sulfooxy-2-(sulfooxymethyl)-3-oxanyl]oxy]-3-[[(2R,3R,4R,5S,6R)-4,5-dihydroxy-3-(sulfoamino)-6-(sulfooxymethyl)-2-oxanyl]oxy]-4,5-dihydroxy-2-oxanecarboxylic acid

> <PUBCHEM_IUPAC_NAME_MARKUP>
(2<I>S</I>,3<I>S</I>,4<I>R</I>,5<I>R</I>,6<I>R</I>)-6-[(2<I>R</I>,3<I>R</I>,4<I>R</I>,5<I>R</I>,6<I>R</I>)-6-[(2<I>R</I>,3<I>S</I>,4<I>S</I>,5<I>R</I>,6<I>R</I>)-2-carboxy-4-hydroxy-6-[(2<I>R</I>,3<I>S</I>,4<I>R</I>,5<I>R</I>,6<I>S</I>)-4-hydroxy-6-methoxy-5-(sulfoamino)-2-(sulfooxymethyl)oxan-3-yl]oxy-5-sulfooxyoxan-3-yl]oxy-5-(sulfoamino)-4-sulfooxy-2-(sulfooxymethyl)oxan-3-yl]oxy-3-[(2<I>R</I>,3<I>R</I>,4<I>R</I>,5<I>S</I>,6<I>R</I>)-4,5-dihydroxy-3-(sulfoamino)-6-(sulfooxymethyl)oxan-2-yl]oxy-4,5-dihydroxyoxane-2-carboxylic acid

> <PUBCHEM_IUPAC_NAME>
(2S,3S,4R,5R,6R)-6-[(2R,3R,4R,5R,6R)-6-[(2R,3S,4S,5R,6R)-2-carboxy-4-hydroxy-6-[(2R,3S,4R,5R,6S)-4-hydroxy-6-methoxy-5-(sulfoamino)-2-(sulfooxymethyl)oxan-3-yl]oxy-5-sulfooxyoxan-3-yl]oxy-5-(sulfoamino)-4-sulfooxy-2-(sulfooxymethyl)oxan-3-yl]oxy-3-[(2R,3R,4R,5S,6R)-4,5-dihydroxy-3-(sulfoamino)-6-(sulfooxymethyl)oxan-2-yl]oxy-4,5-dihydroxyoxane-2-carboxylic acid

> <PUBCHEM_IUPAC_SYSTEMATIC_NAME>
(2S,3S,4R,5R,6R)-3-[(2R,3R,4R,5S,6R)-4,5-bis(oxidanyl)-3-(sulfoamino)-6-(sulfooxymethyl)oxan-2-yl]oxy-6-[(2R,3R,4R,5R,6R)-6-[(2R,3S,4S,5R,6R)-2-carboxy-6-[(2R,3S,4R,5R,6S)-6-methoxy-4-oxidanyl-5-(sulfoamino)-2-(sulfooxymethyl)oxan-3-yl]oxy-4-oxidanyl-5-sulfooxy-oxan-3-yl]oxy-5-(sulfoamino)-4-sulfooxy-2-(sulfooxymethyl)oxan-3-yl]oxy-4,5-bis(oxidanyl)oxane-2-carboxylic acid

> <PUBCHEM_IUPAC_TRADITIONAL_NAME>
(2S,3S,4R,5R,6R)-6-[(2R,3R,4R,5R,6R)-6-[(2R,3S,4S,5R,6R)-2-carboxy-4-hydroxy-6-[(2R,3S,4R,5R,6S)-4-hydroxy-6-methoxy-5-(sulfoamino)-2-(sulfoxymethyl)tetrahydropyran-3-yl]oxy-5-sulfoxy-tetrahydropyran-3-yl]oxy-5-(sulfoamino)-4-sulfoxy-2-(sulfoxymethyl)tetrahydropyran-3-yl]oxy-3-[(2R,3R,4R,5S,6R)-4,5-dihydroxy-3-(sulfoamino)-6-(sulfoxymethyl)tetrahydropyran-2-yl]oxy-4,5-dihydroxy-tetrahydropyran-2-carboxylic acid

> <PUBCHEM_IUPAC_INCHI>
InChI=1S/C31H53N3O49S8/c1-69-27-9(33-85(48,49)50)13(37)17(6(74-27)3-71-88(57,58)59)76-31-22(83-91(66,67)68)16(40)21(24(81-31)26(43)44)79-29-10(34-86(51,52)53)19(82-90(63,64)65)18(7(75-29)4-72-89(60,61)62)77-30-15(39)14(38)20(23(80-30)25(41)42)78-28-8(32-84(45,46)47)12(36)11(35)5(73-28)2-70-87(54,55)56/h5-24,27-40H,2-4H2,1H3,(H,41,42)(H,43,44)(H,45,46,47)(H,48,49,50)(H,51,52,53)(H,54,55,56)(H,57,58,59)(H,60,61,62)(H,63,64,65)(H,66,67,68)/t5-,6-,7-,8-,9-,10-,11-,12-,13-,14-,15-,16+,17-,18-,19-,20+,21+,22-,23+,24-,27+,28-,29-,30-,31-/m1/s1

> <PUBCHEM_IUPAC_INCHIKEY>
KANJSNBRCNMZMV-ABRZTLGGSA-N

> <PUBCHEM_XLOGP3_AA>
-14.7

> <PUBCHEM_EXACT_MASS>
1506.951335

> <PUBCHEM_MOLECULAR_FORMULA>
C31H53N3O49S8

> <PUBCHEM_MOLECULAR_WEIGHT>
1508.3

> <PUBCHEM_OPENEYE_CAN_SMILES>
COC1C(C(C(C(O1)COS(=O)(=O)O)OC2C(C(C(C(O2)C(=O)O)OC3C(C(C(C(O3)COS(=O)(=O)O)OC4C(C(C(C(O4)C(=O)O)OC5C(C(C(C(O5)COS(=O)(=O)O)O)O)NS(=O)(=O)O)O)O)OS(=O)(=O)O)NS(=O)(=O)O)O)OS(=O)(=O)O)O)NS(=O)(=O)O

> <PUBCHEM_OPENEYE_ISO_SMILES>
CO[C@@H]1[C@@H]([C@H]([C@@H]([C@H](O1)COS(=O)(=O)O)O[C@H]2[C@@H]([C@H]([C@@H]([C@@H](O2)C(=O)O)O[C@@H]3[C@@H]([C@H]([C@@H]([C@H](O3)COS(=O)(=O)O)O[C@H]4[C@@H]([C@H]([C@@H]([C@H](O4)C(=O)O)O[C@@H]5[C@@H]([C@H]([C@@H]([C@H](O5)COS(=O)(=O)O)O)O)NS(=O)(=O)O)O)O)OS(=O)(=O)O)NS(=O)(=O)O)O)OS(=O)(=O)O)O)NS(=O)(=O)O

> <PUBCHEM_CACTVS_TPSA>
873

> <PUBCHEM_MONOISOTOPIC_WEIGHT>
1506.951335

> <PUBCHEM_TOTAL_CHARGE>
0

> <PUBCHEM_HEAVY_ATOM_COUNT>
91

> <PUBCHEM_ATOM_DEF_STEREO_COUNT>
25

> <PUBCHEM_ATOM_UDEF_STEREO_COUNT>
0

> <PUBCHEM_BOND_DEF_STEREO_COUNT>
0

> <PUBCHEM_BOND_UDEF_STEREO_COUNT>
0

> <PUBCHEM_ISOTOPIC_ATOM_COUNT>
0

> <PUBCHEM_COMPONENT_COUNT>
1

> <PUBCHEM_CACTVS_TAUTO_COUNT>
-1

> <PUBCHEM_COORDINATE_TYPE>
1
5
255

> <PUBCHEM_BONDANNOTATIONS>
64  10  5
66  10  6
61  11  5
69  11  5
70  13  5
75  13  5
62  14  6
72  16  6
81  16  5
68  19  6
67  20  5
73  21  6
74  22  5
77  24  6
84  25  5
83  26  6
85  27  5
63  58  5
80  59  5
82  60  5
65  78  6
71  87  6
76  89  5
79  88  6
86  90  6

$$$$
