5282315
  -OEChem-05242006122D

129131  0     1  0  0  0  0  0999 V2000
    9.1498    2.7018    0.0000 O   0  0  0  0  0  0  0  0  0  0  0  0
    7.9227    1.2490    0.0000 O   0  0  0  0  0  0  0  0  0  0  0  0
    6.7750    1.9356    0.0000 O   0  0  0  0  0  0  0  0  0  0  0  0
    9.1498    3.7018    0.0000 O   0  0  0  0  0  0  0  0  0  0  0  0
    8.8496    5.0854    0.0000 O   0  0  0  0  0  0  0  0  0  0  0  0
   11.6950   10.4122    0.0000 O   0  0  0  0  0  0  0  0  0  0  0  0
   11.6724    2.0894    0.0000 O   0  0  0  0  0  0  0  0  0  0  0  0
   13.4270    9.4122    0.0000 O   0  0  0  0  0  0  0  0  0  0  0  0
   12.4272    3.3840    0.0000 O   0  0  0  0  0  0  0  0  0  0  0  0
    8.7208    8.2610    0.0000 O   0  0  0  0  0  0  0  0  0  0  0  0
   10.5817    4.0855    0.0000 O   0  0  0  0  0  0  0  0  0  0  0  0
    5.6034    8.7408    0.0000 O   0  0  0  0  0  0  0  0  0  0  0  0
    0.5369    5.4735    0.0000 O   0  0  0  0  0  0  0  0  0  0  0  0
   11.4477    4.5854    0.0000 N   0  0  0  0  0  0  0  0  0  0  0  0
    8.2838    3.2018    0.0000 C   0  0  1  0  0  0  0  0  0  0  0  0
   10.0276    2.1860    0.0000 C   0  0  2  0  0  0  0  0  0  0  0  0
    8.2720    2.1860    0.0000 C   0  0  2  0  0  0  0  0  0  0  0  0
    9.1498    1.6747    0.0000 C   0  0  0  0  0  0  0  0  0  0  0  0
   10.0158    3.2018    0.0000 C   0  0  2  0  0  0  0  0  0  0  0  0
    7.4177    2.7018    0.0000 C   0  0  2  0  0  0  0  0  0  0  0  0
    6.5517    3.2018    0.0000 C   0  0  0  0  0  0  0  0  0  0  0  0
    6.5517    4.2018    0.0000 C   0  0  2  0  0  0  0  0  0  0  0  0
   10.3768    1.2490    0.0000 C   0  0  0  0  0  0  0  0  0  0  0  0
   10.8818    2.7018    0.0000 C   0  0  0  0  0  0  0  0  0  0  0  0
   10.8290    7.9122    0.0000 C   0  0  1  0  0  0  0  0  0  0  0  0
   10.8290    8.9122    0.0000 C   0  0  0  0  0  0  0  0  0  0  0  0
   11.6950    7.4122    0.0000 C   0  0  0  0  0  0  0  0  0  0  0  0
   11.6950    9.4122    0.0000 C   0  0  2  0  0  0  0  0  0  0  0  0
   12.5610    8.9122    0.0000 C   0  0  1  0  0  0  0  0  0  0  0  0
   10.5816    5.0854    0.0000 C   0  0  1  0  0  0  0  0  0  0  0  0
   12.5610    7.9122    0.0000 C   0  0  0  0  0  0  0  0  0  0  0  0
    5.6857    4.7018    0.0000 C   0  0  0  0  0  0  0  0  0  0  0  0
   11.4477    3.5854    0.0000 C   0  0  0  0  0  0  0  0  0  0  0  0
   10.5816    6.0854    0.0000 C   0  0  0  0  0  0  0  0  0  0  0  0
    8.8496    6.0854    0.0000 C   0  0  1  0  0  0  0  0  0  0  0  0
   12.3137    5.0854    0.0000 C   0  0  0  0  0  0  0  0  0  0  0  0
    9.9629    7.4122    0.0000 C   0  0  0  0  0  0  0  0  0  0  0  0
    7.9836    6.5854    0.0000 C   0  0  1  0  0  0  0  0  0  0  0  0
   11.4477    6.5854    0.0000 C   0  0  0  0  0  0  0  0  0  0  0  0
   12.3137    6.0854    0.0000 C   0  0  0  0  0  0  0  0  0  0  0  0
    9.7893    6.4274    0.0000 C   0  0  0  0  0  0  0  0  0  0  0  0
    7.4177    4.7018    0.0000 C   0  0  0  0  0  0  0  0  0  0  0  0
    7.9836    7.5854    0.0000 C   0  0  2  0  0  0  0  0  0  0  0  0
    9.7156    4.5854    0.0000 C   0  0  0  0  0  0  0  0  0  0  0  0
    5.6857    5.7018    0.0000 C   0  0  0  0  0  0  0  0  0  0  0  0
    8.5597    0.4780    0.0000 C   0  0  0  0  0  0  0  0  0  0  0  0
    5.7902    2.1093    0.0000 C   0  0  0  0  0  0  0  0  0  0  0  0
    7.2765    8.2925    0.0000 C   0  0  0  0  0  0  0  0  0  0  0  0
    7.9836    5.5854    0.0000 C   0  0  0  0  0  0  0  0  0  0  0  0
    6.0517    7.0678    0.0000 C   0  0  2  0  0  0  0  0  0  0  0  0
   10.6702    5.6882    0.0000 C   0  0  0  0  0  0  0  0  0  0  0  0
    6.5517    6.2018    0.0000 C   0  0  0  0  0  0  0  0  0  0  0  0
    6.3105    8.0337    0.0000 C   0  0  0  0  0  0  0  0  0  0  0  0
    4.8197    6.2018    0.0000 C   0  0  0  0  0  0  0  0  0  0  0  0
    5.0603    6.9372    0.0000 C   0  0  0  0  0  0  0  0  0  0  0  0
   12.5610   10.9122    0.0000 C   0  0  0  0  0  0  0  0  0  0  0  0
    4.4515    7.7306    0.0000 C   0  0  0  0  0  0  0  0  0  0  0  0
    3.4601    7.6001    0.0000 C   0  0  0  0  0  0  0  0  0  0  0  0
    7.8630    3.9403    0.0000 H   0  0  0  0  0  0  0  0  0  0  0  0
   10.6371    2.2995    0.0000 H   0  0  0  0  0  0  0  0  0  0  0  0
    7.6625    2.2995    0.0000 H   0  0  0  0  0  0  0  0  0  0  0  0
    8.7506    1.2002    0.0000 H   0  0  0  0  0  0  0  0  0  0  0  0
    9.5489    1.2002    0.0000 H   0  0  0  0  0  0  0  0  0  0  0  0
    7.8163    2.2268    0.0000 H   0  0  0  0  0  0  0  0  0  0  0  0
    5.9411    3.3094    0.0000 H   0  0  0  0  0  0  0  0  0  0  0  0
    6.3397    2.6191    0.0000 H   0  0  0  0  0  0  0  0  0  0  0  0
    6.5517    4.8218    0.0000 H   0  0  0  0  0  0  0  0  0  0  0  0
    9.7959    1.0324    0.0000 H   0  0  0  0  0  0  0  0  0  0  0  0
   10.5934    0.6680    0.0000 H   0  0  0  0  0  0  0  0  0  0  0  0
   10.9578    1.4655    0.0000 H   0  0  0  0  0  0  0  0  0  0  0  0
   10.8290    7.2922    0.0000 H   0  0  0  0  0  0  0  0  0  0  0  0
   10.6169    9.4948    0.0000 H   0  0  0  0  0  0  0  0  0  0  0  0
   10.2184    8.8046    0.0000 H   0  0  0  0  0  0  0  0  0  0  0  0
   11.2965    6.9373    0.0000 H   0  0  0  0  0  0  0  0  0  0  0  0
   12.0935    6.9373    0.0000 H   0  0  0  0  0  0  0  0  0  0  0  0
   11.1580    9.7222    0.0000 H   0  0  0  0  0  0  0  0  0  0  0  0
   13.0979    8.6022    0.0000 H   0  0  0  0  0  0  0  0  0  0  0  0
    9.8455    5.5104    0.0000 H   0  0  0  0  0  0  0  0  0  0  0  0
   12.7731    7.3296    0.0000 H   0  0  0  0  0  0  0  0  0  0  0  0
   13.1716    8.0199    0.0000 H   0  0  0  0  0  0  0  0  0  0  0  0
    5.0751    4.8094    0.0000 H   0  0  0  0  0  0  0  0  0  0  0  0
    5.4736    4.1191    0.0000 H   0  0  0  0  0  0  0  0  0  0  0  0
    9.1498    4.3218    0.0000 H   0  0  0  0  0  0  0  0  0  0  0  0
   10.3696    6.6680    0.0000 H   0  0  0  0  0  0  0  0  0  0  0  0
    9.9711    5.9778    0.0000 H   0  0  0  0  0  0  0  0  0  0  0  0
    9.3575    5.7298    0.0000 H   0  0  0  0  0  0  0  0  0  0  0  0
   12.5257    4.5028    0.0000 H   0  0  0  0  0  0  0  0  0  0  0  0
   12.9243    5.1931    0.0000 H   0  0  0  0  0  0  0  0  0  0  0  0
    9.4880    7.8108    0.0000 H   0  0  0  0  0  0  0  0  0  0  0  0
    7.3636    6.5854    0.0000 H   0  0  0  0  0  0  0  0  0  0  0  0
   11.8462    7.0604    0.0000 H   0  0  0  0  0  0  0  0  0  0  0  0
   11.0491    7.0604    0.0000 H   0  0  0  0  0  0  0  0  0  0  0  0
   12.9243    5.9778    0.0000 H   0  0  0  0  0  0  0  0  0  0  0  0
   12.5257    6.6680    0.0000 H   0  0  0  0  0  0  0  0  0  0  0  0
    7.7277    4.1648    0.0000 H   0  0  0  0  0  0  0  0  0  0  0  0
    7.9547    5.0118    0.0000 H   0  0  0  0  0  0  0  0  0  0  0  0
    7.1077    5.2387    0.0000 H   0  0  0  0  0  0  0  0  0  0  0  0
    8.5511    7.3357    0.0000 H   0  0  0  0  0  0  0  0  0  0  0  0
    8.0817    0.0831    0.0000 H   0  0  0  0  0  0  0  0  0  0  0  0
    8.9545    0.0000    0.0000 H   0  0  0  0  0  0  0  0  0  0  0  0
    9.0376    0.8729    0.0000 H   0  0  0  0  0  0  0  0  0  0  0  0
    5.8978    2.7199    0.0000 H   0  0  0  0  0  0  0  0  0  0  0  0
    5.1796    2.2170    0.0000 H   0  0  0  0  0  0  0  0  0  0  0  0
    5.6825    1.4987    0.0000 H   0  0  0  0  0  0  0  0  0  0  0  0
    7.7843    8.6481    0.0000 H   0  0  0  0  0  0  0  0  0  0  0  0
    7.0144    8.8544    0.0000 H   0  0  0  0  0  0  0  0  0  0  0  0
    7.3636    5.5854    0.0000 H   0  0  0  0  0  0  0  0  0  0  0  0
    7.9836    4.9654    0.0000 H   0  0  0  0  0  0  0  0  0  0  0  0
    8.6036    5.5854    0.0000 H   0  0  0  0  0  0  0  0  0  0  0  0
    5.6429    7.5339    0.0000 H   0  0  0  0  0  0  0  0  0  0  0  0
   10.2717    5.2133    0.0000 H   0  0  0  0  0  0  0  0  0  0  0  0
   11.1452    5.2897    0.0000 H   0  0  0  0  0  0  0  0  0  0  0  0
   11.0688    6.1632    0.0000 H   0  0  0  0  0  0  0  0  0  0  0  0
    6.9901    5.7633    0.0000 H   0  0  0  0  0  0  0  0  0  0  0  0
   13.9640    9.1022    0.0000 H   0  0  0  0  0  0  0  0  0  0  0  0
    5.1297    6.7387    0.0000 H   0  0  0  0  0  0  0  0  0  0  0  0
    4.2827    6.5118    0.0000 H   0  0  0  0  0  0  0  0  0  0  0  0
    4.5097    5.6648    0.0000 H   0  0  0  0  0  0  0  0  0  0  0  0
    4.5103    6.6510    0.0000 H   0  0  0  0  0  0  0  0  0  0  0  0
    5.2467    6.3459    0.0000 H   0  0  0  0  0  0  0  0  0  0  0  0
   12.8710   10.3753    0.0000 H   0  0  0  0  0  0  0  0  0  0  0  0
   13.0979   11.2222    0.0000 H   0  0  0  0  0  0  0  0  0  0  0  0
   12.2510   11.4492    0.0000 H   0  0  0  0  0  0  0  0  0  0  0  0
    8.5866    8.8663    0.0000 H   0  0  0  0  0  0  0  0  0  0  0  0
    4.6888    8.3034    0.0000 H   0  0  0  0  0  0  0  0  0  0  0  0
    3.0826    8.0920    0.0000 H   0  0  0  0  0  0  0  0  0  0  0  0
    3.2228    7.0273    0.0000 H   0  0  0  0  0  0  0  0  0  0  0  0
    1.0739    5.7835    0.0000 H   0  0  0  0  0  0  0  0  0  0  0  0
    0.0000    5.7835    0.0000 H   0  0  0  0  0  0  0  0  0  0  0  0
  1 15  1  0  0  0  0
  1 19  1  0  0  0  0
 17  2  1  6  0  0  0
  2 46  1  0  0  0  0
 20  3  1  1  0  0  0
  3 47  1  0  0  0  0
 19  4  1  6  0  0  0
  4 83  1  0  0  0  0
  5 35  1  0  0  0  0
  5 44  1  0  0  0  0
 28  6  1  1  0  0  0
  6 56  1  0  0  0  0
  7 24  2  0  0  0  0
 29  8  1  6  0  0  0
  8115  1  0  0  0  0
  9 33  2  0  0  0  0
 43 10  1  6  0  0  0
 10124  1  0  0  0  0
 11 44  2  0  0  0  0
 12 53  2  0  0  0  0
 13128  1  0  0  0  0
 13129  1  0  0  0  0
 14 30  1  0  0  0  0
 14 33  1  0  0  0  0
 14 36  1  0  0  0  0
 15 17  1  0  0  0  0
 15 20  1  0  0  0  0
 15 59  1  6  0  0  0
 16 18  1  0  0  0  0
 16 19  1  0  0  0  0
 16 23  1  6  0  0  0
 16 60  1  0  0  0  0
 17 18  1  0  0  0  0
 17 61  1  0  0  0  0
 18 62  1  0  0  0  0
 18 63  1  0  0  0  0
 19 24  1  0  0  0  0
 20 21  1  0  0  0  0
 20 64  1  0  0  0  0
 21 22  1  0  0  0  0
 21 65  1  0  0  0  0
 21 66  1  0  0  0  0
 22 32  1  0  0  0  0
 22 42  1  6  0  0  0
 22 67  1  0  0  0  0
 23 68  1  0  0  0  0
 23 69  1  0  0  0  0
 23 70  1  0  0  0  0
 24 33  1  0  0  0  0
 25 26  1  0  0  0  0
 25 27  1  0  0  0  0
 25 37  1  1  0  0  0
 25 71  1  0  0  0  0
 26 28  1  0  0  0  0
 26 72  1  0  0  0  0
 26 73  1  0  0  0  0
 27 31  1  0  0  0  0
 27 74  1  0  0  0  0
 27 75  1  0  0  0  0
 28 29  1  0  0  0  0
 28 76  1  0  0  0  0
 29 31  1  0  0  0  0
 29 77  1  0  0  0  0
 30 34  1  0  0  0  0
 30 44  1  0  0  0  0
 30 78  1  1  0  0  0
 31 79  1  0  0  0  0
 31 80  1  0  0  0  0
 32 45  1  0  0  0  0
 32 81  1  0  0  0  0
 32 82  1  0  0  0  0
 34 39  1  0  0  0  0
 34 84  1  0  0  0  0
 34 85  1  0  0  0  0
 35 38  1  0  0  0  0
 35 41  1  1  0  0  0
 35 86  1  0  0  0  0
 36 40  1  0  0  0  0
 36 87  1  0  0  0  0
 36 88  1  0  0  0  0
 37 41  2  0  0  0  0
 37 89  1  0  0  0  0
 38 43  1  0  0  0  0
 38 49  1  6  0  0  0
 38 90  1  0  0  0  0
 39 40  1  0  0  0  0
 39 91  1  0  0  0  0
 39 92  1  0  0  0  0
 40 93  1  0  0  0  0
 40 94  1  0  0  0  0
 41 51  1  0  0  0  0
 42 95  1  0  0  0  0
 42 96  1  0  0  0  0
 42 97  1  0  0  0  0
 43 48  1  0  0  0  0
 43 98  1  0  0  0  0
 45 52  2  0  0  0  0
 45 54  1  0  0  0  0
 46 99  1  0  0  0  0
 46100  1  0  0  0  0
 46101  1  0  0  0  0
 47102  1  0  0  0  0
 47103  1  0  0  0  0
 47104  1  0  0  0  0
 48 53  1  0  0  0  0
 48105  1  0  0  0  0
 48106  1  0  0  0  0
 49107  1  0  0  0  0
 49108  1  0  0  0  0
 49109  1  0  0  0  0
 50 52  1  0  0  0  0
 50 53  1  0  0  0  0
 50 55  1  1  0  0  0
 50110  1  0  0  0  0
 51111  1  0  0  0  0
 51112  1  0  0  0  0
 51113  1  0  0  0  0
 52114  1  0  0  0  0
 54116  1  0  0  0  0
 54117  1  0  0  0  0
 54118  1  0  0  0  0
 55 57  1  0  0  0  0
 55119  1  0  0  0  0
 55120  1  0  0  0  0
 56121  1  0  0  0  0
 56122  1  0  0  0  0
 56123  1  0  0  0  0
 57 58  2  0  0  0  0
 57125  1  0  0  0  0
 58126  1  0  0  0  0
 58127  1  0  0  0  0
M  END
> <PUBCHEM_COMPOUND_CID>
5282315

> <PUBCHEM_COMPOUND_CANONICALIZED>
1

> <PUBCHEM_CACTVS_COMPLEXITY>
1480

> <PUBCHEM_CACTVS_HBOND_ACCEPTOR>
13

> <PUBCHEM_CACTVS_HBOND_DONOR>
4

> <PUBCHEM_CACTVS_ROTATABLE_BOND>
7

> <PUBCHEM_CACTVS_SUBSKEYS>
AAADcfB+PAAAAAAAAAAAAAAAAAAAAAAAAAA8SIAAAAAAAAAAAAAAHgAACAAADTzhgAYCCAMABgCIAqHSGAIAAAAgAAAICAHIAAgTFBYAoSQHUAAHpgCfIAPY7PTOAAAAAAAAAABAAAIAAACAAAAAAAAAAA==

> <PUBCHEM_IUPAC_OPENEYE_NAME>
(1R,9S,12S,13R,14S,17R,18E,21S,23S,24R,25S,27R)-17-allyl-1,14-dihydroxy-12-[(E)-2-[(1R,3R,4R)-4-hydroxy-3-methoxy-cyclohexyl]-1-methyl-vinyl]-23,25-dimethoxy-13,19,21,27-tetramethyl-11,28-dioxa-4-azatricyclo[22.3.1.04,9]octacos-18-ene-2,3,10,16-tetrone;hydrate

> <PUBCHEM_IUPAC_CAS_NAME>
(1R,9S,12S,13R,14S,17R,18E,21S,23S,24R,25S,27R)-1,14-dihydroxy-12-[(E)-1-[(1R,3R,4R)-4-hydroxy-3-methoxycyclohexyl]prop-1-en-2-yl]-23,25-dimethoxy-13,19,21,27-tetramethyl-17-prop-2-enyl-11,28-dioxa-4-azatricyclo[22.3.1.04,9]octacos-18-ene-2,3,10,16-tetrone;hydrate

> <PUBCHEM_IUPAC_NAME_MARKUP>
(1<I>R</I>,9<I>S</I>,12<I>S</I>,13<I>R</I>,14<I>S</I>,17<I>R</I>,18<I>E</I>,21<I>S</I>,23<I>S</I>,24<I>R</I>,25<I>S</I>,27<I>R</I>)-1,14-dihydroxy-12-[(<I>E</I>)-1-[(1<I>R</I>,3<I>R</I>,4<I>R</I>)-4-hydroxy-3-methoxycyclohexyl]prop-1-en-2-yl]-23,25-dimethoxy-13,19,21,27-tetramethyl-17-prop-2-enyl-11,28-dioxa-4-azatricyclo[22.3.1.0<SUP>4,9</SUP>]octacos-18-ene-2,3,10,16-tetrone;hydrate

> <PUBCHEM_IUPAC_NAME>
(1R,9S,12S,13R,14S,17R,18E,21S,23S,24R,25S,27R)-1,14-dihydroxy-12-[(E)-1-[(1R,3R,4R)-4-hydroxy-3-methoxycyclohexyl]prop-1-en-2-yl]-23,25-dimethoxy-13,19,21,27-tetramethyl-17-prop-2-enyl-11,28-dioxa-4-azatricyclo[22.3.1.04,9]octacos-18-ene-2,3,10,16-tetrone;hydrate

> <PUBCHEM_IUPAC_SYSTEMATIC_NAME>
(1R,9S,12S,13R,14S,17R,18E,21S,23S,24R,25S,27R)-23,25-dimethoxy-12-[(E)-1-[(1R,3R,4R)-3-methoxy-4-oxidanyl-cyclohexyl]prop-1-en-2-yl]-13,19,21,27-tetramethyl-1,14-bis(oxidanyl)-17-prop-2-enyl-11,28-dioxa-4-azatricyclo[22.3.1.04,9]octacos-18-ene-2,3,10,16-tetrone;hydrate

> <PUBCHEM_IUPAC_TRADITIONAL_NAME>
(1R,9S,12S,13R,14S,17R,18E,21S,23S,24R,25S,27R)-17-allyl-1,14-dihydroxy-12-[(E)-2-[(1R,3R,4R)-4-hydroxy-3-methoxy-cyclohexyl]-1-methyl-vinyl]-23,25-dimethoxy-13,19,21,27-tetramethyl-11,28-dioxa-4-azatricyclo[22.3.1.04,9]octacos-18-ene-2,3,10,16-diquinone;hydrate

> <PUBCHEM_IUPAC_INCHI>
InChI=1S/C44H69NO12.H2O/c1-10-13-31-19-25(2)18-26(3)20-37(54-8)40-38(55-9)22-28(5)44(52,57-40)41(49)42(50)45-17-12-11-14-32(45)43(51)56-39(29(6)34(47)24-35(31)48)27(4)21-30-15-16-33(46)36(23-30)53-7;/h10,19,21,26,28-34,36-40,46-47,52H,1,11-18,20,22-24H2,2-9H3;1H2/b25-19+,27-21+;/t26-,28+,29+,30-,31+,32-,33+,34-,36+,37-,38-,39+,40+,44+;/m0./s1

> <PUBCHEM_IUPAC_INCHIKEY>
NWJQLQGQZSIBAF-MLAUYUEBSA-N

> <PUBCHEM_EXACT_MASS>
821.492541

> <PUBCHEM_MOLECULAR_FORMULA>
C44H71NO13

> <PUBCHEM_MOLECULAR_WEIGHT>
822

> <PUBCHEM_OPENEYE_CAN_SMILES>
CC1CC(C2C(CC(C(O2)(C(=O)C(=O)N3CCCCC3C(=O)OC(C(C(CC(=O)C(C=C(C1)C)CC=C)O)C)C(=CC4CCC(C(C4)OC)O)C)O)C)OC)OC.O

> <PUBCHEM_OPENEYE_ISO_SMILES>
C[C@@H]1C[C@@H]([C@@H]2[C@H](C[C@H]([C@@](O2)(C(=O)C(=O)N3CCCC[C@H]3C(=O)O[C@@H]([C@@H]([C@H](CC(=O)[C@@H](/C=C(/C1)\C)CC=C)O)C)/C(=C/[C@@H]4CC[C@H]([C@@H](C4)OC)O)/C)O)C)OC)OC.O

> <PUBCHEM_CACTVS_TPSA>
179

> <PUBCHEM_MONOISOTOPIC_WEIGHT>
821.492541

> <PUBCHEM_TOTAL_CHARGE>
0

> <PUBCHEM_HEAVY_ATOM_COUNT>
58

> <PUBCHEM_ATOM_DEF_STEREO_COUNT>
14

> <PUBCHEM_ATOM_UDEF_STEREO_COUNT>
0

> <PUBCHEM_BOND_DEF_STEREO_COUNT>
2

> <PUBCHEM_BOND_UDEF_STEREO_COUNT>
0

> <PUBCHEM_ISOTOPIC_ATOM_COUNT>
0

> <PUBCHEM_COMPONENT_COUNT>
2

> <PUBCHEM_CACTVS_TAUTO_COUNT>
-1

> <PUBCHEM_COORDINATE_TYPE>
1
5
255

> <PUBCHEM_BONDANNOTATIONS>
43  10  6
15  59  6
16  23  6
17  2  6
22  42  6
25  37  5
20  3  5
30  78  5
35  41  5
38  49  6
19  4  6
50  55  5
28  6  5
29  8  6

$$$$
