62135164
  -OEChem-05242006132D

 23 23  0     0  0  0  0  0  0999 V2000
    4.5981    1.6900    0.0000 S   0  0  0  0  0  0  0  0  0  0  0  0
    3.7320   -2.8100    0.0000 F   0  0  0  0  0  0  0  0  0  0  0  0
    4.0981    2.5560    0.0000 O   0  0  0  0  0  0  0  0  0  0  0  0
    5.0981    0.8240    0.0000 O   0  0  0  0  0  0  0  0  0  0  0  0
    5.4641    2.1900    0.0000 N   0  0  0  0  0  0  0  0  0  0  0  0
    3.7320    1.1900    0.0000 C   0  0  0  0  0  0  0  0  0  0  0  0
    3.7320    0.1900    0.0000 C   0  0  0  0  0  0  0  0  0  0  0  0
    2.8660   -0.3100    0.0000 C   0  0  0  0  0  0  0  0  0  0  0  0
    4.5981   -0.3100    0.0000 C   0  0  0  0  0  0  0  0  0  0  0  0
    2.8660   -1.3100    0.0000 C   0  0  0  0  0  0  0  0  0  0  0  0
    2.0000    0.1900    0.0000 C   0  0  0  0  0  0  0  0  0  0  0  0
    4.5981   -1.3100    0.0000 C   0  0  0  0  0  0  0  0  0  0  0  0
    3.7320   -1.8100    0.0000 C   0  0  0  0  0  0  0  0  0  0  0  0
    3.5200    1.7726    0.0000 H   0  0  0  0  0  0  0  0  0  0  0  0
    3.1215    1.0823    0.0000 H   0  0  0  0  0  0  0  0  0  0  0  0
    5.1350    0.0000    0.0000 H   0  0  0  0  0  0  0  0  0  0  0  0
    2.3291   -1.6200    0.0000 H   0  0  0  0  0  0  0  0  0  0  0  0
    2.3100    0.7269    0.0000 H   0  0  0  0  0  0  0  0  0  0  0  0
    1.4631    0.5000    0.0000 H   0  0  0  0  0  0  0  0  0  0  0  0
    1.6900   -0.3469    0.0000 H   0  0  0  0  0  0  0  0  0  0  0  0
    5.1350   -1.6200    0.0000 H   0  0  0  0  0  0  0  0  0  0  0  0
    5.4641    2.8100    0.0000 H   0  0  0  0  0  0  0  0  0  0  0  0
    6.0010    1.8800    0.0000 H   0  0  0  0  0  0  0  0  0  0  0  0
  1  3  2  0  0  0  0
  1  4  2  0  0  0  0
  1  5  1  0  0  0  0
  1  6  1  0  0  0  0
  2 13  1  0  0  0  0
  5 22  1  0  0  0  0
  5 23  1  0  0  0  0
  6  7  1  0  0  0  0
  6 14  1  0  0  0  0
  6 15  1  0  0  0  0
  7  8  2  0  0  0  0
  7  9  1  0  0  0  0
  8 10  1  0  0  0  0
  8 11  1  0  0  0  0
  9 12  2  0  0  0  0
  9 16  1  0  0  0  0
 10 13  2  0  0  0  0
 10 17  1  0  0  0  0
 11 18  1  0  0  0  0
 11 19  1  0  0  0  0
 11 20  1  0  0  0  0
 12 13  1  0  0  0  0
 12 21  1  0  0  0  0
M  END
> <PUBCHEM_COMPOUND_CID>
62135164

> <PUBCHEM_COMPOUND_CANONICALIZED>
1

> <PUBCHEM_CACTVS_COMPLEXITY>
260

> <PUBCHEM_CACTVS_HBOND_ACCEPTOR>
4

> <PUBCHEM_CACTVS_HBOND_DONOR>
1

> <PUBCHEM_CACTVS_ROTATABLE_BOND>
2

> <PUBCHEM_CACTVS_SUBSKEYS>
AAADccByMQBAAAAAAAAAAAAAAAAAAAAAAAAwAAAAAAAAAAABAAAAGQQQQAAADACEWAiyAIAAAAKAAiBCAHBCAAAgAAAIiAAAAIgIICKAERCAIAAggAAIiAcAgIAOgAAAAAAQAAAAAAAAACAAAAAAAAAAAA==

> <PUBCHEM_IUPAC_OPENEYE_NAME>
(4-fluoro-2-methyl-phenyl)methanesulfonamide

> <PUBCHEM_IUPAC_CAS_NAME>
(4-fluoro-2-methylphenyl)methanesulfonamide

> <PUBCHEM_IUPAC_NAME_MARKUP>
(4-fluoro-2-methylphenyl)methanesulfonamide

> <PUBCHEM_IUPAC_NAME>
(4-fluoro-2-methylphenyl)methanesulfonamide

> <PUBCHEM_IUPAC_SYSTEMATIC_NAME>
(4-fluoranyl-2-methyl-phenyl)methanesulfonamide

> <PUBCHEM_IUPAC_TRADITIONAL_NAME>
(4-fluoro-2-methyl-phenyl)methanesulfonamide

> <PUBCHEM_IUPAC_INCHI>
InChI=1S/C8H10FNO2S/c1-6-4-8(9)3-2-7(6)5-13(10,11)12/h2-4H,5H2,1H3,(H2,10,11,12)

> <PUBCHEM_IUPAC_INCHIKEY>
NSTXYAFVZNXQTB-UHFFFAOYSA-N

> <PUBCHEM_XLOGP3_AA>
0.9

> <PUBCHEM_EXACT_MASS>
203.041628

> <PUBCHEM_MOLECULAR_FORMULA>
C8H10FNO2S

> <PUBCHEM_MOLECULAR_WEIGHT>
203.24

> <PUBCHEM_OPENEYE_CAN_SMILES>
CC1=C(C=CC(=C1)F)CS(=O)(=O)N

> <PUBCHEM_OPENEYE_ISO_SMILES>
CC1=C(C=CC(=C1)F)CS(=O)(=O)N

> <PUBCHEM_CACTVS_TPSA>
68.5

> <PUBCHEM_MONOISOTOPIC_WEIGHT>
203.041628

> <PUBCHEM_TOTAL_CHARGE>
0

> <PUBCHEM_HEAVY_ATOM_COUNT>
13

> <PUBCHEM_ATOM_DEF_STEREO_COUNT>
0

> <PUBCHEM_ATOM_UDEF_STEREO_COUNT>
0

> <PUBCHEM_BOND_DEF_STEREO_COUNT>
0

> <PUBCHEM_BOND_UDEF_STEREO_COUNT>
0

> <PUBCHEM_ISOTOPIC_ATOM_COUNT>
0

> <PUBCHEM_COMPONENT_COUNT>
1

> <PUBCHEM_CACTVS_TAUTO_COUNT>
-1

> <PUBCHEM_COORDINATE_TYPE>
1
5
255

> <PUBCHEM_BONDANNOTATIONS>
10  13  8
12  13  8
7  8  8
7  9  8
8  10  8
9  12  8

$$$$
