62880
  -OEChem-05242006112D

 89 87  0     0  0  0  0  0  0999 V2000
   13.0273    0.0000    0.0000 Cl  0  0  0  0  0  0  0  0  0  0  0  0
   11.7953    5.3100    0.0000 O   0  0  0  0  0  0  0  0  0  0  0  0
   21.3215    2.8100    0.0000 O   0  0  0  0  0  0  0  0  0  0  0  0
   10.9292    2.8100    0.0000 O   0  0  0  0  0  0  0  0  0  0  0  0
   17.8574    2.8100    0.0000 O   0  0  0  0  0  0  0  0  0  0  0  0
    8.3312    5.3100    0.0000 O   0  0  0  0  0  0  0  0  0  0  0  0
    2.2690    2.8100    0.0000 O   0  0  0  0  0  0  0  0  0  0  0  0
   20.4555    5.3100    0.0000 O   0  0  0  0  0  0  0  0  0  0  0  0
    1.4030    5.3100    0.0000 O   0  0  0  0  0  0  0  0  0  0  0  0
   11.7953    4.3100    0.0000 N   0  0  0  0  0  0  0  0  0  0  0  0
   16.9914    4.3100    0.0000 N   0  0  0  0  0  0  0  0  0  0  0  0
    7.4651    3.8100    0.0000 N   0  0  0  0  0  0  0  0  0  0  0  0
   21.3215    3.8100    0.0000 N   0  0  0  0  0  0  0  0  0  0  0  0
    2.2690    3.8100    0.0000 N   0  0  0  0  0  0  0  0  0  0  0  0
   26.5177    3.8100    0.0000 N   0  0  0  0  0  0  0  0  0  0  0  0
   14.3933    3.8100    0.0000 C   0  0  0  0  0  0  0  0  0  0  0  0
   13.5273    4.3100    0.0000 C   0  0  0  0  0  0  0  0  0  0  0  0
   15.2594    4.3100    0.0000 C   0  0  0  0  0  0  0  0  0  0  0  0
   12.6613    3.8100    0.0000 C   0  0  0  0  0  0  0  0  0  0  0  0
    4.8671    4.3100    0.0000 C   0  0  0  0  0  0  0  0  0  0  0  0
    5.7331    3.8100    0.0000 C   0  0  0  0  0  0  0  0  0  0  0  0
   16.1254    3.8100    0.0000 C   0  0  0  0  0  0  0  0  0  0  0  0
    4.0010    3.8100    0.0000 C   0  0  0  0  0  0  0  0  0  0  0  0
   23.0536    3.8100    0.0000 C   0  0  0  0  0  0  0  0  0  0  0  0
   23.9196    4.3100    0.0000 C   0  0  0  0  0  0  0  0  0  0  0  0
    6.5991    4.3100    0.0000 C   0  0  0  0  0  0  0  0  0  0  0  0
   22.1876    4.3100    0.0000 C   0  0  0  0  0  0  0  0  0  0  0  0
   24.7856    3.8100    0.0000 C   0  0  0  0  0  0  0  0  0  0  0  0
    3.1350    4.3100    0.0000 C   0  0  0  0  0  0  0  0  0  0  0  0
   10.0632    4.3100    0.0000 C   0  0  0  0  0  0  0  0  0  0  0  0
    9.1972    3.8100    0.0000 C   0  0  0  0  0  0  0  0  0  0  0  0
   18.7235    4.3100    0.0000 C   0  0  0  0  0  0  0  0  0  0  0  0
   19.5895    3.8100    0.0000 C   0  0  0  0  0  0  0  0  0  0  0  0
   10.9292    3.8100    0.0000 C   0  0  0  0  0  0  0  0  0  0  0  0
   17.8574    3.8100    0.0000 C   0  0  0  0  0  0  0  0  0  0  0  0
    8.3312    4.3100    0.0000 C   0  0  0  0  0  0  0  0  0  0  0  0
   25.6517    4.3100    0.0000 C   0  0  0  0  0  0  0  0  0  0  0  0
   20.4555    4.3100    0.0000 C   0  0  0  0  0  0  0  0  0  0  0  0
    1.4030    4.3100    0.0000 C   0  0  0  0  0  0  0  0  0  0  0  0
    0.5369    3.8100    0.0000 C   0  0  0  0  0  0  0  0  0  0  0  0
   13.9948    3.3350    0.0000 H   0  0  0  0  0  0  0  0  0  0  0  0
   14.7919    3.3350    0.0000 H   0  0  0  0  0  0  0  0  0  0  0  0
   13.9258    4.7850    0.0000 H   0  0  0  0  0  0  0  0  0  0  0  0
   13.1288    4.7850    0.0000 H   0  0  0  0  0  0  0  0  0  0  0  0
   15.6579    4.7850    0.0000 H   0  0  0  0  0  0  0  0  0  0  0  0
   14.8608    4.7850    0.0000 H   0  0  0  0  0  0  0  0  0  0  0  0
    5.2656    4.7850    0.0000 H   0  0  0  0  0  0  0  0  0  0  0  0
    4.4685    4.7850    0.0000 H   0  0  0  0  0  0  0  0  0  0  0  0
   12.2628    3.3350    0.0000 H   0  0  0  0  0  0  0  0  0  0  0  0
   13.0598    3.3350    0.0000 H   0  0  0  0  0  0  0  0  0  0  0  0
    5.3346    3.3350    0.0000 H   0  0  0  0  0  0  0  0  0  0  0  0
    6.1316    3.3350    0.0000 H   0  0  0  0  0  0  0  0  0  0  0  0
   15.7269    3.3350    0.0000 H   0  0  0  0  0  0  0  0  0  0  0  0
   16.5239    3.3350    0.0000 H   0  0  0  0  0  0  0  0  0  0  0  0
    3.6025    3.3350    0.0000 H   0  0  0  0  0  0  0  0  0  0  0  0
    4.3996    3.3350    0.0000 H   0  0  0  0  0  0  0  0  0  0  0  0
   22.6551    3.3350    0.0000 H   0  0  0  0  0  0  0  0  0  0  0  0
   23.4521    3.3350    0.0000 H   0  0  0  0  0  0  0  0  0  0  0  0
   24.3182    4.7850    0.0000 H   0  0  0  0  0  0  0  0  0  0  0  0
   23.5211    4.7850    0.0000 H   0  0  0  0  0  0  0  0  0  0  0  0
    6.9976    4.7850    0.0000 H   0  0  0  0  0  0  0  0  0  0  0  0
    6.2006    4.7850    0.0000 H   0  0  0  0  0  0  0  0  0  0  0  0
   22.5861    4.7850    0.0000 H   0  0  0  0  0  0  0  0  0  0  0  0
   21.7890    4.7850    0.0000 H   0  0  0  0  0  0  0  0  0  0  0  0
   24.3871    3.3350    0.0000 H   0  0  0  0  0  0  0  0  0  0  0  0
   25.1842    3.3350    0.0000 H   0  0  0  0  0  0  0  0  0  0  0  0
    3.5335    4.7850    0.0000 H   0  0  0  0  0  0  0  0  0  0  0  0
    2.7365    4.7850    0.0000 H   0  0  0  0  0  0  0  0  0  0  0  0
   16.9914    4.9300    0.0000 H   0  0  0  0  0  0  0  0  0  0  0  0
   10.4617    4.7850    0.0000 H   0  0  0  0  0  0  0  0  0  0  0  0
    9.6647    4.7850    0.0000 H   0  0  0  0  0  0  0  0  0  0  0  0
    8.7987    3.3350    0.0000 H   0  0  0  0  0  0  0  0  0  0  0  0
    9.5957    3.3350    0.0000 H   0  0  0  0  0  0  0  0  0  0  0  0
   19.1220    4.7850    0.0000 H   0  0  0  0  0  0  0  0  0  0  0  0
   18.3249    4.7850    0.0000 H   0  0  0  0  0  0  0  0  0  0  0  0
    7.4651    3.1900    0.0000 H   0  0  0  0  0  0  0  0  0  0  0  0
   19.1910    3.3350    0.0000 H   0  0  0  0  0  0  0  0  0  0  0  0
   19.9880    3.3350    0.0000 H   0  0  0  0  0  0  0  0  0  0  0  0
   26.0502    4.7850    0.0000 H   0  0  0  0  0  0  0  0  0  0  0  0
   25.2531    4.7850    0.0000 H   0  0  0  0  0  0  0  0  0  0  0  0
   12.3322    5.6200    0.0000 H   0  0  0  0  0  0  0  0  0  0  0  0
   27.0546    4.1200    0.0000 H   0  0  0  0  0  0  0  0  0  0  0  0
   26.5177    3.1900    0.0000 H   0  0  0  0  0  0  0  0  0  0  0  0
   21.8585    2.5000    0.0000 H   0  0  0  0  0  0  0  0  0  0  0  0
    1.7320    2.5000    0.0000 H   0  0  0  0  0  0  0  0  0  0  0  0
    0.2269    4.3469    0.0000 H   0  0  0  0  0  0  0  0  0  0  0  0
    0.0000    3.5000    0.0000 H   0  0  0  0  0  0  0  0  0  0  0  0
    0.8469    3.2731    0.0000 H   0  0  0  0  0  0  0  0  0  0  0  0
   14.0273    0.0000    0.0000 H   0  0  0  0  0  0  0  0  0  0  0  0
  1 89  1  0  0  0  0
  2 10  1  0  0  0  0
  2 81  1  0  0  0  0
  3 13  1  0  0  0  0
  3 84  1  0  0  0  0
  4 34  2  0  0  0  0
  5 35  2  0  0  0  0
  6 36  2  0  0  0  0
  7 14  1  0  0  0  0
  7 85  1  0  0  0  0
  8 38  2  0  0  0  0
  9 39  2  0  0  0  0
 10 19  1  0  0  0  0
 10 34  1  0  0  0  0
 11 22  1  0  0  0  0
 11 35  1  0  0  0  0
 11 69  1  0  0  0  0
 12 26  1  0  0  0  0
 12 36  1  0  0  0  0
 12 76  1  0  0  0  0
 13 27  1  0  0  0  0
 13 38  1  0  0  0  0
 14 29  1  0  0  0  0
 14 39  1  0  0  0  0
 15 37  1  0  0  0  0
 15 82  1  0  0  0  0
 15 83  1  0  0  0  0
 16 17  1  0  0  0  0
 16 18  1  0  0  0  0
 16 41  1  0  0  0  0
 16 42  1  0  0  0  0
 17 19  1  0  0  0  0
 17 43  1  0  0  0  0
 17 44  1  0  0  0  0
 18 22  1  0  0  0  0
 18 45  1  0  0  0  0
 18 46  1  0  0  0  0
 19 49  1  0  0  0  0
 19 50  1  0  0  0  0
 20 21  1  0  0  0  0
 20 23  1  0  0  0  0
 20 47  1  0  0  0  0
 20 48  1  0  0  0  0
 21 26  1  0  0  0  0
 21 51  1  0  0  0  0
 21 52  1  0  0  0  0
 22 53  1  0  0  0  0
 22 54  1  0  0  0  0
 23 29  1  0  0  0  0
 23 55  1  0  0  0  0
 23 56  1  0  0  0  0
 24 25  1  0  0  0  0
 24 27  1  0  0  0  0
 24 57  1  0  0  0  0
 24 58  1  0  0  0  0
 25 28  1  0  0  0  0
 25 59  1  0  0  0  0
 25 60  1  0  0  0  0
 26 61  1  0  0  0  0
 26 62  1  0  0  0  0
 27 63  1  0  0  0  0
 27 64  1  0  0  0  0
 28 37  1  0  0  0  0
 28 65  1  0  0  0  0
 28 66  1  0  0  0  0
 29 67  1  0  0  0  0
 29 68  1  0  0  0  0
 30 31  1  0  0  0  0
 30 34  1  0  0  0  0
 30 70  1  0  0  0  0
 30 71  1  0  0  0  0
 31 36  1  0  0  0  0
 31 72  1  0  0  0  0
 31 73  1  0  0  0  0
 32 33  1  0  0  0  0
 32 35  1  0  0  0  0
 32 74  1  0  0  0  0
 32 75  1  0  0  0  0
 33 38  1  0  0  0  0
 33 77  1  0  0  0  0
 33 78  1  0  0  0  0
 37 79  1  0  0  0  0
 37 80  1  0  0  0  0
 39 40  1  0  0  0  0
 40 86  1  0  0  0  0
 40 87  1  0  0  0  0
 40 88  1  0  0  0  0
M  END
> <PUBCHEM_COMPOUND_CID>
62880

> <PUBCHEM_COMPOUND_CANONICALIZED>
1

> <PUBCHEM_CACTVS_COMPLEXITY>
739

> <PUBCHEM_CACTVS_HBOND_ACCEPTOR>
9

> <PUBCHEM_CACTVS_HBOND_DONOR>
7

> <PUBCHEM_CACTVS_ROTATABLE_BOND>
23

> <PUBCHEM_CACTVS_SUBSKEYS>
AAADcfB7vAAEAAAAAAAAAAAAAAAAAAAAAAAAAAAAAAAAAAAAAAAAHgAUCAAACADBgAQCAALQAAAIAAEQEAAAAAAAAAAgAIEIAAAAABIAgAAEAAAAFgCAAAAVAAAAAAAAAAAAAAAAAAAAAAAAAAAAAAAAAA==

> <PUBCHEM_IUPAC_OPENEYE_NAME>
N-[5-[[4-[5-[acetyl(hydroxy)amino]pentylamino]-4-oxo-butanoyl]-hydroxy-amino]pentyl]-N'-(5-aminopentyl)-N'-hydroxy-butanediamide;hydrochloride

> <PUBCHEM_IUPAC_CAS_NAME>
N-[5-[[4-[5-[acetyl(hydroxy)amino]pentylamino]-1,4-dioxobutyl]-hydroxyamino]pentyl]-N'-(5-aminopentyl)-N'-hydroxybutanediamide;hydrochloride

> <PUBCHEM_IUPAC_NAME_MARKUP>
<I>N</I>-[5-[[4-[5-[acetyl(hydroxy)amino]pentylamino]-4-oxobutanoyl]-hydroxyamino]pentyl]-<I>N</I>&apos;-(5-aminopentyl)-<I>N</I>&apos;-hydroxybutanediamide;hydrochloride

> <PUBCHEM_IUPAC_NAME>
N-[5-[[4-[5-[acetyl(hydroxy)amino]pentylamino]-4-oxobutanoyl]-hydroxyamino]pentyl]-N'-(5-aminopentyl)-N'-hydroxybutanediamide;hydrochloride

> <PUBCHEM_IUPAC_SYSTEMATIC_NAME>
N'-(5-azanylpentyl)-N-[5-[[4-[5-[ethanoyl(oxidanyl)amino]pentylamino]-4-oxidanylidene-butanoyl]-oxidanyl-amino]pentyl]-N'-oxidanyl-butanediamide;hydrochloride

> <PUBCHEM_IUPAC_TRADITIONAL_NAME>
N-[5-[[4-[5-[acetyl(hydroxy)amino]pentylamino]-4-keto-butanoyl]-hydroxy-amino]pentyl]-N'-(5-aminopentyl)-N'-hydroxy-succinamide;hydrochloride

> <PUBCHEM_IUPAC_INCHI>
InChI=1S/C25H48N6O8.ClH/c1-21(32)29(37)18-9-3-6-16-27-22(33)12-14-25(36)31(39)20-10-4-7-17-28-23(34)11-13-24(35)30(38)19-8-2-5-15-26;/h37-39H,2-20,26H2,1H3,(H,27,33)(H,28,34);1H

> <PUBCHEM_IUPAC_INCHIKEY>
KCRQZLMAZHZDCL-UHFFFAOYSA-N

> <PUBCHEM_EXACT_MASS>
596.33004

> <PUBCHEM_MOLECULAR_FORMULA>
C25H49ClN6O8

> <PUBCHEM_MOLECULAR_WEIGHT>
597.1

> <PUBCHEM_OPENEYE_CAN_SMILES>
CC(=O)N(CCCCCNC(=O)CCC(=O)N(CCCCCNC(=O)CCC(=O)N(CCCCCN)O)O)O.Cl

> <PUBCHEM_OPENEYE_ISO_SMILES>
CC(=O)N(CCCCCNC(=O)CCC(=O)N(CCCCCNC(=O)CCC(=O)N(CCCCCN)O)O)O.Cl

> <PUBCHEM_CACTVS_TPSA>
206

> <PUBCHEM_MONOISOTOPIC_WEIGHT>
596.33004

> <PUBCHEM_TOTAL_CHARGE>
0

> <PUBCHEM_HEAVY_ATOM_COUNT>
40

> <PUBCHEM_ATOM_DEF_STEREO_COUNT>
0

> <PUBCHEM_ATOM_UDEF_STEREO_COUNT>
0

> <PUBCHEM_BOND_DEF_STEREO_COUNT>
0

> <PUBCHEM_BOND_UDEF_STEREO_COUNT>
0

> <PUBCHEM_ISOTOPIC_ATOM_COUNT>
0

> <PUBCHEM_COMPONENT_COUNT>
2

> <PUBCHEM_CACTVS_TAUTO_COUNT>
-1

> <PUBCHEM_COORDINATE_TYPE>
1
5
255

$$$$
