712045
  -OEChem-05242006122D

 39 40  0     0  0  0  0  0  0999 V2000
    4.5981   -1.0000    0.0000 O   0  0  0  0  0  0  0  0  0  0  0  0
    2.8660   -1.0000    0.0000 N   0  0  0  0  0  0  0  0  0  0  0  0
    3.7320    0.5000    0.0000 N   0  0  0  0  0  0  0  0  0  0  0  0
    7.1962    3.5000    0.0000 N   0  0  0  0  0  0  0  0  0  0  0  0
    2.8660   -2.0000    0.0000 C   0  0  0  0  0  0  0  0  0  0  0  0
    2.0000   -2.5000    0.0000 C   0  0  0  0  0  0  0  0  0  0  0  0
    3.7320   -2.5000    0.0000 C   0  0  0  0  0  0  0  0  0  0  0  0
    2.0000   -3.5000    0.0000 C   0  0  0  0  0  0  0  0  0  0  0  0
    3.7320   -3.5000    0.0000 C   0  0  0  0  0  0  0  0  0  0  0  0
    2.8660   -4.0000    0.0000 C   0  0  0  0  0  0  0  0  0  0  0  0
    3.7320   -0.5000    0.0000 C   0  0  0  0  0  0  0  0  0  0  0  0
    4.5981    1.0000    0.0000 C   0  0  0  0  0  0  0  0  0  0  0  0
    4.5981    2.0000    0.0000 C   0  0  0  0  0  0  0  0  0  0  0  0
    5.4641    2.5000    0.0000 C   0  0  0  0  0  0  0  0  0  0  0  0
    5.4641    3.5000    0.0000 C   0  0  0  0  0  0  0  0  0  0  0  0
    6.3301    2.0000    0.0000 C   0  0  0  0  0  0  0  0  0  0  0  0
    6.3301    4.0000    0.0000 C   0  0  0  0  0  0  0  0  0  0  0  0
    7.1962    2.5000    0.0000 C   0  0  0  0  0  0  0  0  0  0  0  0
    3.4030   -1.6900    0.0000 H   0  0  0  0  0  0  0  0  0  0  0  0
    1.7880   -1.9174    0.0000 H   0  0  0  0  0  0  0  0  0  0  0  0
    1.3894   -2.6077    0.0000 H   0  0  0  0  0  0  0  0  0  0  0  0
    4.3426   -2.6077    0.0000 H   0  0  0  0  0  0  0  0  0  0  0  0
    3.9441   -1.9174    0.0000 H   0  0  0  0  0  0  0  0  0  0  0  0
    1.3894   -3.3923    0.0000 H   0  0  0  0  0  0  0  0  0  0  0  0
    1.7880   -4.0826    0.0000 H   0  0  0  0  0  0  0  0  0  0  0  0
    3.9441   -4.0826    0.0000 H   0  0  0  0  0  0  0  0  0  0  0  0
    4.3426   -3.3923    0.0000 H   0  0  0  0  0  0  0  0  0  0  0  0
    2.4675   -4.4750    0.0000 H   0  0  0  0  0  0  0  0  0  0  0  0
    3.2646   -4.4750    0.0000 H   0  0  0  0  0  0  0  0  0  0  0  0
    2.3291   -0.6900    0.0000 H   0  0  0  0  0  0  0  0  0  0  0  0
    3.1951    0.8100    0.0000 H   0  0  0  0  0  0  0  0  0  0  0  0
    4.8101    0.4174    0.0000 H   0  0  0  0  0  0  0  0  0  0  0  0
    5.2087    1.1077    0.0000 H   0  0  0  0  0  0  0  0  0  0  0  0
    4.3860    2.5826    0.0000 H   0  0  0  0  0  0  0  0  0  0  0  0
    3.9875    1.8923    0.0000 H   0  0  0  0  0  0  0  0  0  0  0  0
    4.9272    3.8100    0.0000 H   0  0  0  0  0  0  0  0  0  0  0  0
    6.3301    1.3800    0.0000 H   0  0  0  0  0  0  0  0  0  0  0  0
    6.3301    4.6200    0.0000 H   0  0  0  0  0  0  0  0  0  0  0  0
    7.7331    2.1900    0.0000 H   0  0  0  0  0  0  0  0  0  0  0  0
  1 11  2  0  0  0  0
  2  5  1  0  0  0  0
  2 11  1  0  0  0  0
  2 30  1  0  0  0  0
  3 11  1  0  0  0  0
  3 12  1  0  0  0  0
  3 31  1  0  0  0  0
  4 17  2  0  0  0  0
  4 18  1  0  0  0  0
  5  6  1  0  0  0  0
  5  7  1  0  0  0  0
  5 19  1  0  0  0  0
  6  8  1  0  0  0  0
  6 20  1  0  0  0  0
  6 21  1  0  0  0  0
  7  9  1  0  0  0  0
  7 22  1  0  0  0  0
  7 23  1  0  0  0  0
  8 10  1  0  0  0  0
  8 24  1  0  0  0  0
  8 25  1  0  0  0  0
  9 10  1  0  0  0  0
  9 26  1  0  0  0  0
  9 27  1  0  0  0  0
 10 28  1  0  0  0  0
 10 29  1  0  0  0  0
 12 13  1  0  0  0  0
 12 32  1  0  0  0  0
 12 33  1  0  0  0  0
 13 14  1  0  0  0  0
 13 34  1  0  0  0  0
 13 35  1  0  0  0  0
 14 15  2  0  0  0  0
 14 16  1  0  0  0  0
 15 17  1  0  0  0  0
 15 36  1  0  0  0  0
 16 18  2  0  0  0  0
 16 37  1  0  0  0  0
 17 38  1  0  0  0  0
 18 39  1  0  0  0  0
M  END
> <PUBCHEM_COMPOUND_CID>
712045

> <PUBCHEM_COMPOUND_CANONICALIZED>
1

> <PUBCHEM_CACTVS_COMPLEXITY>
245

> <PUBCHEM_CACTVS_HBOND_ACCEPTOR>
2

> <PUBCHEM_CACTVS_HBOND_DONOR>
2

> <PUBCHEM_CACTVS_ROTATABLE_BOND>
4

> <PUBCHEM_CACTVS_SUBSKEYS>
AAADceBzIAAAAAAAAAAAAAAAAAAAAAAAAAA8QAAAAAAAAAABgAAAHgAQAAAADCjBGgQ9gJLIEACoAjBnVACCgCAxAiAI2KA4ZJiIIGLAkZGEIAholgLIyAcQAAAKAAAAAAAAAAAAAAAAAAAAAAAAAAAAAA==

> <PUBCHEM_IUPAC_OPENEYE_NAME>
1-cyclohexyl-3-[2-(4-pyridyl)ethyl]urea

> <PUBCHEM_IUPAC_CAS_NAME>
1-cyclohexyl-3-(2-pyridin-4-ylethyl)urea

> <PUBCHEM_IUPAC_NAME_MARKUP>
1-cyclohexyl-3-(2-pyridin-4-ylethyl)urea

> <PUBCHEM_IUPAC_NAME>
1-cyclohexyl-3-(2-pyridin-4-ylethyl)urea

> <PUBCHEM_IUPAC_SYSTEMATIC_NAME>
1-cyclohexyl-3-(2-pyridin-4-ylethyl)urea

> <PUBCHEM_IUPAC_TRADITIONAL_NAME>
1-cyclohexyl-3-[2-(4-pyridyl)ethyl]urea

> <PUBCHEM_IUPAC_INCHI>
InChI=1S/C14H21N3O/c18-14(17-13-4-2-1-3-5-13)16-11-8-12-6-9-15-10-7-12/h6-7,9-10,13H,1-5,8,11H2,(H2,16,17,18)

> <PUBCHEM_IUPAC_INCHIKEY>
XUPGANVQJLTRNJ-UHFFFAOYSA-N

> <PUBCHEM_XLOGP3_AA>
2.1

> <PUBCHEM_EXACT_MASS>
247.168462

> <PUBCHEM_MOLECULAR_FORMULA>
C14H21N3O

> <PUBCHEM_MOLECULAR_WEIGHT>
247.34

> <PUBCHEM_OPENEYE_CAN_SMILES>
C1CCC(CC1)NC(=O)NCCC2=CC=NC=C2

> <PUBCHEM_OPENEYE_ISO_SMILES>
C1CCC(CC1)NC(=O)NCCC2=CC=NC=C2

> <PUBCHEM_CACTVS_TPSA>
54

> <PUBCHEM_MONOISOTOPIC_WEIGHT>
247.168462

> <PUBCHEM_TOTAL_CHARGE>
0

> <PUBCHEM_HEAVY_ATOM_COUNT>
18

> <PUBCHEM_ATOM_DEF_STEREO_COUNT>
0

> <PUBCHEM_ATOM_UDEF_STEREO_COUNT>
0

> <PUBCHEM_BOND_DEF_STEREO_COUNT>
0

> <PUBCHEM_BOND_UDEF_STEREO_COUNT>
0

> <PUBCHEM_ISOTOPIC_ATOM_COUNT>
0

> <PUBCHEM_COMPONENT_COUNT>
1

> <PUBCHEM_CACTVS_TAUTO_COUNT>
-1

> <PUBCHEM_COORDINATE_TYPE>
1
5
255

> <PUBCHEM_BONDANNOTATIONS>
14  15  8
14  16  8
15  17  8
16  18  8
4  17  8
4  18  8

$$$$
