712421
  -OEChem-05242006122D

 29 29  0     1  0  0  0  0  0999 V2000
    4.5981    2.1900    0.0000 O   0  0  0  0  0  0  0  0  0  0  0  0
    2.8660    2.1900    0.0000 O   0  0  0  0  0  0  0  0  0  0  0  0
    4.5981    0.1900    0.0000 N   0  0  0  0  0  0  0  0  0  0  0  0
    2.8660   -0.8100    0.0000 C   0  0  0  0  0  0  0  0  0  0  0  0
    2.0000   -1.3100    0.0000 C   0  0  0  0  0  0  0  0  0  0  0  0
    3.7320   -1.3100    0.0000 C   0  0  0  0  0  0  0  0  0  0  0  0
    2.0000   -2.3100    0.0000 C   0  0  0  0  0  0  0  0  0  0  0  0
    3.7320   -2.3100    0.0000 C   0  0  0  0  0  0  0  0  0  0  0  0
    2.8660    0.1900    0.0000 C   0  0  0  0  0  0  0  0  0  0  0  0
    2.8660   -2.8100    0.0000 C   0  0  0  0  0  0  0  0  0  0  0  0
    3.7320    0.6900    0.0000 C   0  0  1  0  0  0  0  0  0  0  0  0
    3.7320    1.6900    0.0000 C   0  0  0  0  0  0  0  0  0  0  0  0
    3.4030   -0.5000    0.0000 H   0  0  0  0  0  0  0  0  0  0  0  0
    1.7880   -0.7274    0.0000 H   0  0  0  0  0  0  0  0  0  0  0  0
    1.3894   -1.4177    0.0000 H   0  0  0  0  0  0  0  0  0  0  0  0
    4.3426   -1.4177    0.0000 H   0  0  0  0  0  0  0  0  0  0  0  0
    3.9441   -0.7274    0.0000 H   0  0  0  0  0  0  0  0  0  0  0  0
    1.3894   -2.2023    0.0000 H   0  0  0  0  0  0  0  0  0  0  0  0
    1.7880   -2.8926    0.0000 H   0  0  0  0  0  0  0  0  0  0  0  0
    3.9441   -2.8926    0.0000 H   0  0  0  0  0  0  0  0  0  0  0  0
    4.3426   -2.2023    0.0000 H   0  0  0  0  0  0  0  0  0  0  0  0
    2.6540    0.7726    0.0000 H   0  0  0  0  0  0  0  0  0  0  0  0
    2.2554    0.0823    0.0000 H   0  0  0  0  0  0  0  0  0  0  0  0
    2.4675   -3.2850    0.0000 H   0  0  0  0  0  0  0  0  0  0  0  0
    3.2646   -3.2850    0.0000 H   0  0  0  0  0  0  0  0  0  0  0  0
    3.7320    0.0700    0.0000 H   0  0  0  0  0  0  0  0  0  0  0  0
    5.1350    0.5000    0.0000 H   0  0  0  0  0  0  0  0  0  0  0  0
    4.5981   -0.4300    0.0000 H   0  0  0  0  0  0  0  0  0  0  0  0
    4.5981    2.8100    0.0000 H   0  0  0  0  0  0  0  0  0  0  0  0
  1 12  1  0  0  0  0
  1 29  1  0  0  0  0
  2 12  2  0  0  0  0
 11  3  1  1  0  0  0
  3 27  1  0  0  0  0
  3 28  1  0  0  0  0
  4  5  1  0  0  0  0
  4  6  1  0  0  0  0
  4  9  1  0  0  0  0
  4 13  1  0  0  0  0
  5  7  1  0  0  0  0
  5 14  1  0  0  0  0
  5 15  1  0  0  0  0
  6  8  1  0  0  0  0
  6 16  1  0  0  0  0
  6 17  1  0  0  0  0
  7 10  1  0  0  0  0
  7 18  1  0  0  0  0
  7 19  1  0  0  0  0
  8 10  1  0  0  0  0
  8 20  1  0  0  0  0
  8 21  1  0  0  0  0
  9 11  1  0  0  0  0
  9 22  1  0  0  0  0
  9 23  1  0  0  0  0
 10 24  1  0  0  0  0
 10 25  1  0  0  0  0
 11 12  1  0  0  0  0
 11 26  1  0  0  0  0
M  END
> <PUBCHEM_COMPOUND_CID>
712421

> <PUBCHEM_COMPOUND_CANONICALIZED>
1

> <PUBCHEM_CACTVS_COMPLEXITY>
153

> <PUBCHEM_CACTVS_HBOND_ACCEPTOR>
3

> <PUBCHEM_CACTVS_HBOND_DONOR>
2

> <PUBCHEM_CACTVS_ROTATABLE_BOND>
3

> <PUBCHEM_CACTVS_SUBSKEYS>
AAADceByMAAAAAAAAAAAAAAAAAAAAAAAAAAwAAAAAAAAAAAAAAAAHgAQCAAADSjBgAQACABAAgAIAACQCAAAAAAAAAAAAIGAAAACABIAgAAAQAAEEAAAAAGYyKCOAAAAAAAAAAAAAAAAAAAAAAAAAAAAAA==

> <PUBCHEM_IUPAC_OPENEYE_NAME>
(2S)-2-amino-3-cyclohexyl-propanoic acid

> <PUBCHEM_IUPAC_CAS_NAME>
(2S)-2-amino-3-cyclohexylpropanoic acid

> <PUBCHEM_IUPAC_NAME_MARKUP>
(2<I>S</I>)-2-amino-3-cyclohexylpropanoic acid

> <PUBCHEM_IUPAC_NAME>
(2S)-2-amino-3-cyclohexylpropanoic acid

> <PUBCHEM_IUPAC_SYSTEMATIC_NAME>
(2S)-2-azanyl-3-cyclohexyl-propanoic acid

> <PUBCHEM_IUPAC_TRADITIONAL_NAME>
(2S)-2-amino-3-cyclohexyl-propionic acid

> <PUBCHEM_IUPAC_INCHI>
InChI=1S/C9H17NO2/c10-8(9(11)12)6-7-4-2-1-3-5-7/h7-8H,1-6,10H2,(H,11,12)/t8-/m0/s1

> <PUBCHEM_IUPAC_INCHIKEY>
ORQXBVXKBGUSBA-QMMMGPOBSA-N

> <PUBCHEM_XLOGP3_AA>
-0.3

> <PUBCHEM_EXACT_MASS>
171.125929

> <PUBCHEM_MOLECULAR_FORMULA>
C9H17NO2

> <PUBCHEM_MOLECULAR_WEIGHT>
171.24

> <PUBCHEM_OPENEYE_CAN_SMILES>
C1CCC(CC1)CC(C(=O)O)N

> <PUBCHEM_OPENEYE_ISO_SMILES>
C1CCC(CC1)C[C@@H](C(=O)O)N

> <PUBCHEM_CACTVS_TPSA>
63.3

> <PUBCHEM_MONOISOTOPIC_WEIGHT>
171.125929

> <PUBCHEM_TOTAL_CHARGE>
0

> <PUBCHEM_HEAVY_ATOM_COUNT>
12

> <PUBCHEM_ATOM_DEF_STEREO_COUNT>
1

> <PUBCHEM_ATOM_UDEF_STEREO_COUNT>
0

> <PUBCHEM_BOND_DEF_STEREO_COUNT>
0

> <PUBCHEM_BOND_UDEF_STEREO_COUNT>
0

> <PUBCHEM_ISOTOPIC_ATOM_COUNT>
0

> <PUBCHEM_COMPONENT_COUNT>
1

> <PUBCHEM_CACTVS_TAUTO_COUNT>
-1

> <PUBCHEM_COORDINATE_TYPE>
1
5
255

> <PUBCHEM_BONDANNOTATIONS>
11  3  5

$$$$
