71481097
  -OEChem-05242006102D

 42 44  0     0  0  0  0  0  0999 V2000
    2.3660   -3.7633    0.0000 F   0  0  0  0  0  0  0  0  0  0  0  0
    2.0000   -5.1293    0.0000 F   0  0  0  0  0  0  0  0  0  0  0  0
    3.3660   -5.4953    0.0000 F   0  0  0  0  0  0  0  0  0  0  0  0
    7.1962   -5.1293    0.0000 F   0  0  0  0  0  0  0  0  0  0  0  0
    5.8301   -5.4953    0.0000 F   0  0  0  0  0  0  0  0  0  0  0  0
    6.8301   -3.7633    0.0000 F   0  0  0  0  0  0  0  0  0  0  0  0
    5.4993    0.9276    0.0000 O   0  0  0  0  0  0  0  0  0  0  0  0
    4.0981   -0.0905    0.0000 N   0  0  0  0  0  0  0  0  0  0  0  0
    3.7891   -1.0415    0.0000 N   0  0  0  0  0  0  0  0  0  0  0  0
    5.4071   -1.0415    0.0000 N   0  0  0  0  0  0  0  0  0  0  0  0
    5.3183    2.6502    0.0000 N   0  0  0  0  0  0  0  0  0  0  0  0
    6.3128    2.7547    0.0000 N   0  0  0  0  0  0  0  0  0  0  0  0
    7.7141    3.7728    0.0000 N   0  0  0  0  0  0  0  0  0  0  0  0
    6.5385    5.3908    0.0000 N   0  0  0  0  0  0  0  0  0  0  0  0
    4.5981   -2.6293    0.0000 C   0  0  0  0  0  0  0  0  0  0  0  0
    3.7320   -4.1293    0.0000 C   0  0  0  0  0  0  0  0  0  0  0  0
    5.4641   -4.1293    0.0000 C   0  0  0  0  0  0  0  0  0  0  0  0
    5.4641   -3.1293    0.0000 C   0  0  0  0  0  0  0  0  0  0  0  0
    3.7320   -3.1293    0.0000 C   0  0  0  0  0  0  0  0  0  0  0  0
    4.5981   -4.6293    0.0000 C   0  0  0  0  0  0  0  0  0  0  0  0
    4.5981   -1.6293    0.0000 C   0  0  0  0  0  0  0  0  0  0  0  0
    2.8660   -4.6293    0.0000 C   0  0  0  0  0  0  0  0  0  0  0  0
    6.3301   -4.6293    0.0000 C   0  0  0  0  0  0  0  0  0  0  0  0
    5.0981   -0.0905    0.0000 C   0  0  0  0  0  0  0  0  0  0  0  0
    3.5103    0.7186    0.0000 C   0  0  0  0  0  0  0  0  0  0  0  0
    3.9170    1.6321    0.0000 C   0  0  0  0  0  0  0  0  0  0  0  0
    4.9116    1.7366    0.0000 C   0  0  0  0  0  0  0  0  0  0  0  0
    6.7195    3.6682    0.0000 C   0  0  0  0  0  0  0  0  0  0  0  0
    6.1318    4.4773    0.0000 C   0  0  0  0  0  0  0  0  0  0  0  0
    8.1208    4.6863    0.0000 C   0  0  0  0  0  0  0  0  0  0  0  0
    7.5330    5.4953    0.0000 C   0  0  0  0  0  0  0  0  0  0  0  0
    6.0010   -2.8193    0.0000 H   0  0  0  0  0  0  0  0  0  0  0  0
    3.1951   -2.8193    0.0000 H   0  0  0  0  0  0  0  0  0  0  0  0
    4.5981   -5.2493    0.0000 H   0  0  0  0  0  0  0  0  0  0  0  0
    5.4625    0.4111    0.0000 H   0  0  0  0  0  0  0  0  0  0  0  0
    2.8937    0.6537    0.0000 H   0  0  0  0  0  0  0  0  0  0  0  0
    3.5526    2.1337    0.0000 H   0  0  0  0  0  0  0  0  0  0  0  0
    4.9539    3.1518    0.0000 H   0  0  0  0  0  0  0  0  0  0  0  0
    6.6772    2.2531    0.0000 H   0  0  0  0  0  0  0  0  0  0  0  0
    5.5152    4.4124    0.0000 H   0  0  0  0  0  0  0  0  0  0  0  0
    8.7374    4.7511    0.0000 H   0  0  0  0  0  0  0  0  0  0  0  0
    7.7852    6.0617    0.0000 H   0  0  0  0  0  0  0  0  0  0  0  0
  1 22  1  0  0  0  0
  2 22  1  0  0  0  0
  3 22  1  0  0  0  0
  4 23  1  0  0  0  0
  5 23  1  0  0  0  0
  6 23  1  0  0  0  0
  7 27  2  0  0  0  0
  8  9  1  0  0  0  0
  8 24  1  0  0  0  0
  8 25  1  0  0  0  0
  9 21  2  0  0  0  0
 10 21  1  0  0  0  0
 10 24  2  0  0  0  0
 11 12  1  0  0  0  0
 11 27  1  0  0  0  0
 11 38  1  0  0  0  0
 12 28  1  0  0  0  0
 12 39  1  0  0  0  0
 13 28  2  0  0  0  0
 13 30  1  0  0  0  0
 14 29  2  0  0  0  0
 14 31  1  0  0  0  0
 15 18  2  0  0  0  0
 15 19  1  0  0  0  0
 15 21  1  0  0  0  0
 16 19  2  0  0  0  0
 16 20  1  0  0  0  0
 16 22  1  0  0  0  0
 17 18  1  0  0  0  0
 17 20  2  0  0  0  0
 17 23  1  0  0  0  0
 18 32  1  0  0  0  0
 19 33  1  0  0  0  0
 20 34  1  0  0  0  0
 24 35  1  0  0  0  0
 25 26  2  0  0  0  0
 25 36  1  0  0  0  0
 26 27  1  0  0  0  0
 26 37  1  0  0  0  0
 28 29  1  0  0  0  0
 29 40  1  0  0  0  0
 30 31  2  0  0  0  0
 30 41  1  0  0  0  0
 31 42  1  0  0  0  0
M  END
> <PUBCHEM_COMPOUND_CID>
71481097

> <PUBCHEM_COMPOUND_CANONICALIZED>
1

> <PUBCHEM_CACTVS_COMPLEXITY>
621

> <PUBCHEM_CACTVS_HBOND_ACCEPTOR>
12

> <PUBCHEM_CACTVS_HBOND_DONOR>
2

> <PUBCHEM_CACTVS_ROTATABLE_BOND>
5

> <PUBCHEM_CACTVS_SUBSKEYS>
AAADccB7ocAAAAAAAAAAAAAAAAAAAWAAAAA8QAAAAAAAAAAB8AAAHwAYAAAADADBmxQ9sJZqEACqAjN3dACShC8xkqIf6CA4NNiIaOKAmRGUIAhomAKIiOcQgEAOAAACAAAAAAAAAAQAAAAAAAAAAAAAAA==

> <PUBCHEM_IUPAC_OPENEYE_NAME>
(Z)-3-[3-[3,5-bis(trifluoromethyl)phenyl]-1,2,4-triazol-1-yl]-N'-pyrazin-2-yl-prop-2-enehydrazide

> <PUBCHEM_IUPAC_CAS_NAME>
(Z)-3-[3-[3,5-bis(trifluoromethyl)phenyl]-1,2,4-triazol-1-yl]-N'-(2-pyrazinyl)-2-propenehydrazide

> <PUBCHEM_IUPAC_NAME_MARKUP>
(<I>Z</I>)-3-[3-[3,5-bis(trifluoromethyl)phenyl]-1,2,4-triazol-1-yl]-<I>N</I>&apos;-pyrazin-2-ylprop-2-enehydrazide

> <PUBCHEM_IUPAC_NAME>
(Z)-3-[3-[3,5-bis(trifluoromethyl)phenyl]-1,2,4-triazol-1-yl]-N'-pyrazin-2-ylprop-2-enehydrazide

> <PUBCHEM_IUPAC_SYSTEMATIC_NAME>
(Z)-3-[3-[3,5-bis(trifluoromethyl)phenyl]-1,2,4-triazol-1-yl]-N'-pyrazin-2-yl-prop-2-enehydrazide

> <PUBCHEM_IUPAC_TRADITIONAL_NAME>
(Z)-3-[3-[3,5-bis(trifluoromethyl)phenyl]-1,2,4-triazol-1-yl]-N'-pyrazin-2-yl-acrylohydrazide

> <PUBCHEM_IUPAC_INCHI>
InChI=1S/C17H11F6N7O/c18-16(19,20)11-5-10(6-12(7-11)17(21,22)23)15-26-9-30(29-15)4-1-14(31)28-27-13-8-24-2-3-25-13/h1-9H,(H,25,27)(H,28,31)/b4-1-

> <PUBCHEM_IUPAC_INCHIKEY>
DEVSOMFAQLZNKR-RJRFIUFISA-N

> <PUBCHEM_XLOGP3_AA>
3

> <PUBCHEM_EXACT_MASS>
443.092927

> <PUBCHEM_MOLECULAR_FORMULA>
C17H11F6N7O

> <PUBCHEM_MOLECULAR_WEIGHT>
443.3

> <PUBCHEM_OPENEYE_CAN_SMILES>
C1=CN=C(C=N1)NNC(=O)C=CN2C=NC(=N2)C3=CC(=CC(=C3)C(F)(F)F)C(F)(F)F

> <PUBCHEM_OPENEYE_ISO_SMILES>
C1=CN=C(C=N1)NNC(=O)/C=C\N2C=NC(=N2)C3=CC(=CC(=C3)C(F)(F)F)C(F)(F)F

> <PUBCHEM_CACTVS_TPSA>
97.6

> <PUBCHEM_MONOISOTOPIC_WEIGHT>
443.092927

> <PUBCHEM_TOTAL_CHARGE>
0

> <PUBCHEM_HEAVY_ATOM_COUNT>
31

> <PUBCHEM_ATOM_DEF_STEREO_COUNT>
0

> <PUBCHEM_ATOM_UDEF_STEREO_COUNT>
0

> <PUBCHEM_BOND_DEF_STEREO_COUNT>
1

> <PUBCHEM_BOND_UDEF_STEREO_COUNT>
0

> <PUBCHEM_ISOTOPIC_ATOM_COUNT>
0

> <PUBCHEM_COMPONENT_COUNT>
1

> <PUBCHEM_CACTVS_TAUTO_COUNT>
-1

> <PUBCHEM_COORDINATE_TYPE>
1
5
255

> <PUBCHEM_BONDANNOTATIONS>
10  21  8
10  24  8
13  28  8
13  30  8
14  29  8
14  31  8
15  18  8
15  19  8
16  19  8
16  20  8
17  18  8
17  20  8
28  29  8
30  31  8
8  24  8
8  9  8
9  21  8

$$$$
