71661251
  -OEChem-05242006102D

120128  0     1  0  0  0  0  0999 V2000
    5.7463   -1.5319    0.0000 O   0  0  0  0  0  0  0  0  0  0  0  0
   19.7603   -0.8965    0.0000 O   0  0  0  0  0  0  0  0  0  0  0  0
   14.0569    1.1514    0.0000 O   0  0  0  0  0  0  0  0  0  0  0  0
    2.9116   -3.7600    0.0000 O   0  0  0  0  0  0  0  0  0  0  0  0
   23.2569   -0.0170    0.0000 O   0  0  0  0  0  0  0  0  0  0  0  0
    2.1997   -2.1811    0.0000 O   0  0  0  0  0  0  0  0  0  0  0  0
   23.2636   -1.7490    0.0000 O   0  0  0  0  0  0  0  0  0  0  0  0
    5.0344    0.0471    0.0000 N   0  0  0  0  0  0  0  0  0  0  0  0
   19.7669   -2.6286    0.0000 N   0  0  0  0  0  0  0  0  0  0  0  0
    7.6771    0.6528    0.0000 N   0  0  0  0  0  0  0  0  0  0  0  0
   17.1067   -2.1047    0.0000 N   0  0  0  0  0  0  0  0  0  0  0  0
    7.0260   -0.8284    0.0000 N   0  0  0  0  0  0  0  0  0  0  0  0
   18.3050   -1.0174    0.0000 N   0  0  0  0  0  0  0  0  0  0  0  0
   12.4096    0.6162    0.0000 N   0  0  0  0  0  0  0  0  0  0  0  0
    3.9231   -2.3540    0.0000 N   0  0  0  0  0  0  0  0  0  0  0  0
   21.7602   -0.8888    0.0000 N   0  0  0  0  0  0  0  0  0  0  0  0
    5.8980    0.5511    0.0000 C   0  0  1  0  0  0  0  0  0  0  0  0
   18.7728   -2.7369    0.0000 C   0  0  1  0  0  0  0  0  0  0  0  0
    5.6855    1.5283    0.0000 C   0  0  0  0  0  0  0  0  0  0  0  0
   18.5687   -3.7158    0.0000 C   0  0  0  0  0  0  0  0  0  0  0  0
    4.6905    1.6281    0.0000 C   0  0  0  0  0  0  0  0  0  0  0  0
    4.2880    0.7127    0.0000 C   0  0  0  0  0  0  0  0  0  0  0  0
   19.4366   -4.2125    0.0000 C   0  0  0  0  0  0  0  0  0  0  0  0
   20.1772   -3.5405    0.0000 C   0  0  0  0  0  0  0  0  0  0  0  0
    6.8135    0.1487    0.0000 C   0  0  0  0  0  0  0  0  0  0  0  0
   18.1008   -1.9964    0.0000 C   0  0  0  0  0  0  0  0  0  0  0  0
    4.9345   -0.9480    0.0000 C   0  0  0  0  0  0  0  0  0  0  0  0
   20.2636   -1.7606    0.0000 C   0  0  0  0  0  0  0  0  0  0  0  0
    4.0229   -1.3590    0.0000 C   0  0  2  0  0  0  0  0  0  0  0  0
   21.2636   -1.7568    0.0000 C   0  0  2  0  0  0  0  0  0  0  0  0
    3.2111   -0.7750    0.0000 C   0  0  0  0  0  0  0  0  0  0  0  0
   21.7669   -2.6208    0.0000 C   0  0  0  0  0  0  0  0  0  0  0  0
    8.4234   -0.0128    0.0000 C   0  0  0  0  0  0  0  0  0  0  0  0
   16.6965   -1.1927    0.0000 C   0  0  0  0  0  0  0  0  0  0  0  0
   12.7187   -0.3349    0.0000 C   0  0  0  0  0  0  0  0  0  0  0  0
   11.4156    0.6136    0.0000 C   0  0  0  0  0  0  0  0  0  0  0  0
    9.4006    0.1997    0.0000 C   0  0  0  0  0  0  0  0  0  0  0  0
   13.0788    1.3593    0.0000 C   0  0  2  0  0  0  0  0  0  0  0  0
    8.0210   -0.9283    0.0000 C   0  0  0  0  0  0  0  0  0  0  0  0
   11.1092   -0.3321    0.0000 C   0  0  0  0  0  0  0  0  0  0  0  0
   17.4370   -0.5208    0.0000 C   0  0  0  0  0  0  0  0  0  0  0  0
    2.2995   -1.1861    0.0000 C   0  0  0  0  0  0  0  0  0  0  0  0
    3.3110    0.2200    0.0000 C   0  0  0  0  0  0  0  0  0  0  0  0
   15.7175   -0.9886    0.0000 C   0  0  0  0  0  0  0  0  0  0  0  0
   22.7669   -2.6170    0.0000 C   0  0  0  0  0  0  0  0  0  0  0  0
   21.2703   -3.4888    0.0000 C   0  0  0  0  0  0  0  0  0  0  0  0
   13.6968   -0.5428    0.0000 C   0  0  0  0  0  0  0  0  0  0  0  0
   14.3659    0.2004    0.0000 C   0  0  0  0  0  0  0  0  0  0  0  0
   11.9129   -0.9171    0.0000 C   0  0  0  0  0  0  0  0  0  0  0  0
   10.1000   -0.5638    0.0000 C   0  0  0  0  0  0  0  0  0  0  0  0
   15.3880   -0.0005    0.0000 C   0  0  0  0  0  0  0  0  0  0  0  0
   10.7340    1.3931    0.0000 C   0  0  0  0  0  0  0  0  0  0  0  0
    9.7197    1.1848    0.0000 C   0  0  0  0  0  0  0  0  0  0  0  0
   15.0205   -1.7627    0.0000 C   0  0  0  0  0  0  0  0  0  0  0  0
   14.0034   -1.5383    0.0000 C   0  0  0  0  0  0  0  0  0  0  0  0
   12.7698    2.3104    0.0000 C   0  0  0  0  0  0  0  0  0  0  0  0
    3.0114   -2.7650    0.0000 C   0  0  0  0  0  0  0  0  0  0  0  0
   22.7602   -0.8849    0.0000 C   0  0  0  0  0  0  0  0  0  0  0  0
   13.4389    3.0535    0.0000 C   0  0  0  0  0  0  0  0  0  0  0  0
   11.7916    2.5183    0.0000 C   0  0  0  0  0  0  0  0  0  0  0  0
   13.1299    4.0046    0.0000 C   0  0  0  0  0  0  0  0  0  0  0  0
   11.4826    3.4694    0.0000 C   0  0  0  0  0  0  0  0  0  0  0  0
   12.1517    4.2125    0.0000 C   0  0  0  0  0  0  0  0  0  0  0  0
    2.0000   -4.1711    0.0000 C   0  0  0  0  0  0  0  0  0  0  0  0
   24.2569   -0.0131    0.0000 C   0  0  0  0  0  0  0  0  0  0  0  0
    6.5560    1.0892    0.0000 H   0  0  0  0  0  0  0  0  0  0  0  0
   17.9526   -2.9601    0.0000 H   0  0  0  0  0  0  0  0  0  0  0  0
    6.3018    1.5960    0.0000 H   0  0  0  0  0  0  0  0  0  0  0  0
    5.6826    2.1483    0.0000 H   0  0  0  0  0  0  0  0  0  0  0  0
   17.9783   -3.5265    0.0000 H   0  0  0  0  0  0  0  0  0  0  0  0
   18.3187   -4.2832    0.0000 H   0  0  0  0  0  0  0  0  0  0  0  0
    4.8165    2.2352    0.0000 H   0  0  0  0  0  0  0  0  0  0  0  0
    4.0999    1.8169    0.0000 H   0  0  0  0  0  0  0  0  0  0  0  0
    3.7497    1.0201    0.0000 H   0  0  0  0  0  0  0  0  0  0  0  0
    3.9260    0.2094    0.0000 H   0  0  0  0  0  0  0  0  0  0  0  0
   19.0741   -4.7155    0.0000 H   0  0  0  0  0  0  0  0  0  0  0  0
   19.8990   -4.6256    0.0000 H   0  0  0  0  0  0  0  0  0  0  0  0
   20.5436   -4.0407    0.0000 H   0  0  0  0  0  0  0  0  0  0  0  0
   20.7129   -3.2284    0.0000 H   0  0  0  0  0  0  0  0  0  0  0  0
    4.5262   -1.7210    0.0000 H   0  0  0  0  0  0  0  0  0  0  0  0
   21.8836   -1.7544    0.0000 H   0  0  0  0  0  0  0  0  0  0  0  0
    3.1492   -1.3919    0.0000 H   0  0  0  0  0  0  0  0  0  0  0  0
   22.0790   -3.1566    0.0000 H   0  0  0  0  0  0  0  0  0  0  0  0
    7.7390    1.2697    0.0000 H   0  0  0  0  0  0  0  0  0  0  0  0
   16.7988   -2.6428    0.0000 H   0  0  0  0  0  0  0  0  0  0  0  0
    4.4264   -2.7160    0.0000 H   0  0  0  0  0  0  0  0  0  0  0  0
   21.4482   -0.3531    0.0000 H   0  0  0  0  0  0  0  0  0  0  0  0
   13.4936    1.8201    0.0000 H   0  0  0  0  0  0  0  0  0  0  0  0
    8.3335   -1.4637    0.0000 H   0  0  0  0  0  0  0  0  0  0  0  0
   17.3698    0.0956    0.0000 H   0  0  0  0  0  0  0  0  0  0  0  0
    2.0446   -0.6209    0.0000 H   0  0  0  0  0  0  0  0  0  0  0  0
    1.7343   -1.4409    0.0000 H   0  0  0  0  0  0  0  0  0  0  0  0
    2.5544   -1.7513    0.0000 H   0  0  0  0  0  0  0  0  0  0  0  0
    3.9278    0.1581    0.0000 H   0  0  0  0  0  0  0  0  0  0  0  0
    3.3728    0.8369    0.0000 H   0  0  0  0  0  0  0  0  0  0  0  0
    2.6940    0.2819    0.0000 H   0  0  0  0  0  0  0  0  0  0  0  0
   22.7693   -3.2370    0.0000 H   0  0  0  0  0  0  0  0  0  0  0  0
   23.3869   -2.6146    0.0000 H   0  0  0  0  0  0  0  0  0  0  0  0
   22.7645   -1.9970    0.0000 H   0  0  0  0  0  0  0  0  0  0  0  0
   20.7321   -3.1809    0.0000 H   0  0  0  0  0  0  0  0  0  0  0  0
   20.9623   -4.0269    0.0000 H   0  0  0  0  0  0  0  0  0  0  0  0
   21.8084   -3.7967    0.0000 H   0  0  0  0  0  0  0  0  0  0  0  0
   11.9118   -1.5371    0.0000 H   0  0  0  0  0  0  0  0  0  0  0  0
    9.9157   -1.1558    0.0000 H   0  0  0  0  0  0  0  0  0  0  0  0
   15.7975    0.4651    0.0000 H   0  0  0  0  0  0  0  0  0  0  0  0
   10.9319    1.9807    0.0000 H   0  0  0  0  0  0  0  0  0  0  0  0
    9.3062    1.6468    0.0000 H   0  0  0  0  0  0  0  0  0  0  0  0
   15.2099   -2.3531    0.0000 H   0  0  0  0  0  0  0  0  0  0  0  0
   13.5832   -1.9942    0.0000 H   0  0  0  0  0  0  0  0  0  0  0  0
   14.0453    2.9246    0.0000 H   0  0  0  0  0  0  0  0  0  0  0  0
   11.3767    2.0576    0.0000 H   0  0  0  0  0  0  0  0  0  0  0  0
   13.5447    4.4654    0.0000 H   0  0  0  0  0  0  0  0  0  0  0  0
   10.8761    3.5983    0.0000 H   0  0  0  0  0  0  0  0  0  0  0  0
   11.9601    4.8022    0.0000 H   0  0  0  0  0  0  0  0  0  0  0  0
    1.7452   -3.6059    0.0000 H   0  0  0  0  0  0  0  0  0  0  0  0
    1.4348   -4.4259    0.0000 H   0  0  0  0  0  0  0  0  0  0  0  0
    2.2548   -4.7363    0.0000 H   0  0  0  0  0  0  0  0  0  0  0  0
   24.2593   -0.6331    0.0000 H   0  0  0  0  0  0  0  0  0  0  0  0
   24.8769   -0.0108    0.0000 H   0  0  0  0  0  0  0  0  0  0  0  0
   24.2545    0.6068    0.0000 H   0  0  0  0  0  0  0  0  0  0  0  0
  1 27  2  0  0  0  0
  2 28  2  0  0  0  0
  3 38  1  0  0  0  0
  3 48  1  0  0  0  0
  4 57  1  0  0  0  0
  4 64  1  0  0  0  0
  5 58  1  0  0  0  0
  5 65  1  0  0  0  0
  6 57  2  0  0  0  0
  7 58  2  0  0  0  0
  8 17  1  0  0  0  0
  8 22  1  0  0  0  0
  8 27  1  0  0  0  0
  9 18  1  0  0  0  0
  9 24  1  0  0  0  0
  9 28  1  0  0  0  0
 10 25  1  0  0  0  0
 10 33  1  0  0  0  0
 10 84  1  0  0  0  0
 11 26  1  0  0  0  0
 11 34  1  0  0  0  0
 11 85  1  0  0  0  0
 12 25  2  0  0  0  0
 12 39  1  0  0  0  0
 13 26  2  0  0  0  0
 13 41  1  0  0  0  0
 14 35  1  0  0  0  0
 14 36  1  0  0  0  0
 14 38  1  0  0  0  0
 29 15  1  1  0  0  0
 15 57  1  0  0  0  0
 15 86  1  0  0  0  0
 30 16  1  1  0  0  0
 16 58  1  0  0  0  0
 16 87  1  0  0  0  0
 17 19  1  0  0  0  0
 17 25  1  0  0  0  0
 17 66  1  6  0  0  0
 18 20  1  0  0  0  0
 18 26  1  0  0  0  0
 18 67  1  6  0  0  0
 19 21  1  0  0  0  0
 19 68  1  0  0  0  0
 19 69  1  0  0  0  0
 20 23  1  0  0  0  0
 20 70  1  0  0  0  0
 20 71  1  0  0  0  0
 21 22  1  0  0  0  0
 21 72  1  0  0  0  0
 21 73  1  0  0  0  0
 22 74  1  0  0  0  0
 22 75  1  0  0  0  0
 23 24  1  0  0  0  0
 23 76  1  0  0  0  0
 23 77  1  0  0  0  0
 24 78  1  0  0  0  0
 24 79  1  0  0  0  0
 27 29  1  0  0  0  0
 28 30  1  0  0  0  0
 29 31  1  0  0  0  0
 29 80  1  0  0  0  0
 30 32  1  0  0  0  0
 30 81  1  0  0  0  0
 31 42  1  0  0  0  0
 31 43  1  0  0  0  0
 31 82  1  0  0  0  0
 32 45  1  0  0  0  0
 32 46  1  0  0  0  0
 32 83  1  0  0  0  0
 33 37  1  0  0  0  0
 33 39  2  0  0  0  0
 34 41  2  0  0  0  0
 34 44  1  0  0  0  0
 35 47  1  0  0  0  0
 35 49  2  0  0  0  0
 36 40  2  0  0  0  0
 36 52  1  0  0  0  0
 37 50  2  0  0  0  0
 37 53  1  0  0  0  0
 38 56  1  6  0  0  0
 38 88  1  0  0  0  0
 39 89  1  0  0  0  0
 40 49  1  0  0  0  0
 40 50  1  0  0  0  0
 41 90  1  0  0  0  0
 42 91  1  0  0  0  0
 42 92  1  0  0  0  0
 42 93  1  0  0  0  0
 43 94  1  0  0  0  0
 43 95  1  0  0  0  0
 43 96  1  0  0  0  0
 44 51  2  0  0  0  0
 44 54  1  0  0  0  0
 45 97  1  0  0  0  0
 45 98  1  0  0  0  0
 45 99  1  0  0  0  0
 46100  1  0  0  0  0
 46101  1  0  0  0  0
 46102  1  0  0  0  0
 47 48  2  0  0  0  0
 47 55  1  0  0  0  0
 48 51  1  0  0  0  0
 49103  1  0  0  0  0
 50104  1  0  0  0  0
 51105  1  0  0  0  0
 52 53  2  0  0  0  0
 52106  1  0  0  0  0
 53107  1  0  0  0  0
 54 55  2  0  0  0  0
 54108  1  0  0  0  0
 55109  1  0  0  0  0
 56 59  2  0  0  0  0
 56 60  1  0  0  0  0
 59 61  1  0  0  0  0
 59110  1  0  0  0  0
 60 62  2  0  0  0  0
 60111  1  0  0  0  0
 61 63  2  0  0  0  0
 61112  1  0  0  0  0
 62 63  1  0  0  0  0
 62113  1  0  0  0  0
 63114  1  0  0  0  0
 64115  1  0  0  0  0
 64116  1  0  0  0  0
 64117  1  0  0  0  0
 65118  1  0  0  0  0
 65119  1  0  0  0  0
 65120  1  0  0  0  0
M  END
> <PUBCHEM_COMPOUND_CID>
71661251

> <PUBCHEM_COMPOUND_CANONICALIZED>
1

> <PUBCHEM_CACTVS_COMPLEXITY>
1680

> <PUBCHEM_CACTVS_HBOND_ACCEPTOR>
9

> <PUBCHEM_CACTVS_HBOND_DONOR>
4

> <PUBCHEM_CACTVS_ROTATABLE_BOND>
13

> <PUBCHEM_CACTVS_SUBSKEYS>
AAADcfB/+AAAAAAAAAAAAAAAAAAAAWLFixY8YMEAAAAAAFix/gAAHgAQAAAADSzhnwY/3vfNlACoAzd3fACCiC2xMqAJ2aG+fJmMbvLEubueOCju1hPI6Cew0PIOSAADAAAKAACQAAYAABQAAAAAAAAAAA==

> <PUBCHEM_IUPAC_OPENEYE_NAME>
methyl N-[(1S)-1-[(2S)-2-[5-[(6S)-3-[2-[(2S)-1-[(2S)-2-(methoxycarbonylamino)-3-methyl-butanoyl]pyrrolidin-2-yl]-1H-imidazol-5-yl]-6-phenyl-6H-indolo[1,2-c][1,3]benzoxazin-10-yl]-1H-imidazol-2-yl]pyrrolidine-1-carbonyl]-2-methyl-propyl]carbamate

> <PUBCHEM_IUPAC_CAS_NAME>
N-[(2S)-1-[(2S)-2-[5-[(6S)-3-[2-[(2S)-1-[(2S)-2-(methoxycarbonylamino)-3-methyl-1-oxobutyl]-2-pyrrolidinyl]-1H-imidazol-5-yl]-6-phenyl-6H-indolo[1,2-c][1,3]benzoxazin-10-yl]-1H-imidazol-2-yl]-1-pyrrolidinyl]-3-methyl-1-oxobutan-2-yl]carbamic acid methyl ester

> <PUBCHEM_IUPAC_NAME_MARKUP>
methyl <I>N</I>-[(2<I>S</I>)-1-[(2<I>S</I>)-2-[5-[(6<I>S</I>)-3-[2-[(2<I>S</I>)-1-[(2<I>S</I>)-2-(methoxycarbonylamino)-3-methylbutanoyl]pyrrolidin-2-yl]-1<I>H</I>-imidazol-5-yl]-6-phenyl-6<I>H</I>-indolo[1,2-c][1,3]benzoxazin-10-yl]-1<I>H</I>-imidazol-2-yl]pyrrolidin-1-yl]-3-methyl-1-oxobutan-2-yl]carbamate

> <PUBCHEM_IUPAC_NAME>
methyl N-[(2S)-1-[(2S)-2-[5-[(6S)-3-[2-[(2S)-1-[(2S)-2-(methoxycarbonylamino)-3-methylbutanoyl]pyrrolidin-2-yl]-1H-imidazol-5-yl]-6-phenyl-6H-indolo[1,2-c][1,3]benzoxazin-10-yl]-1H-imidazol-2-yl]pyrrolidin-1-yl]-3-methyl-1-oxobutan-2-yl]carbamate

> <PUBCHEM_IUPAC_SYSTEMATIC_NAME>
methyl N-[(2S)-1-[(2S)-2-[5-[(6S)-3-[2-[(2S)-1-[(2S)-2-(methoxycarbonylamino)-3-methyl-butanoyl]pyrrolidin-2-yl]-1H-imidazol-5-yl]-6-phenyl-6H-indolo[1,2-c][1,3]benzoxazin-10-yl]-1H-imidazol-2-yl]pyrrolidin-1-yl]-3-methyl-1-oxidanylidene-butan-2-yl]carbamate

> <PUBCHEM_IUPAC_TRADITIONAL_NAME>
N-[(1S)-1-[(2S)-2-[5-[(6S)-3-[2-[(2S)-1-[(2S)-2-(carbomethoxyamino)-3-methyl-butanoyl]pyrrolidin-2-yl]-1H-imidazol-5-yl]-6-phenyl-6H-indolo[1,2-c][1,3]benzoxazin-10-yl]-1H-imidazol-2-yl]pyrrolidine-1-carbonyl]-2-methyl-propyl]carbamic acid methyl ester

> <PUBCHEM_IUPAC_INCHI>
InChI=1S/C49H55N9O7/c1-27(2)41(54-48(61)63-5)45(59)56-20-10-14-37(56)43-50-25-34(52-43)30-17-19-36-32(22-30)23-39-33-18-16-31(24-40(33)65-47(58(36)39)29-12-8-7-9-13-29)35-26-51-44(53-35)38-15-11-21-57(38)46(60)42(28(3)4)55-49(62)64-6/h7-9,12-13,16-19,22-28,37-38,41-42,47H,10-11,14-15,20-21H2,1-6H3,(H,50,52)(H,51,53)(H,54,61)(H,55,62)/t37-,38-,41-,42-,47-/m0/s1

> <PUBCHEM_IUPAC_INCHIKEY>
BVAZQCUMNICBAQ-PZHYSIFUSA-N

> <PUBCHEM_XLOGP3_AA>
6.7

> <PUBCHEM_EXACT_MASS>
881.422445

> <PUBCHEM_MOLECULAR_FORMULA>
C49H55N9O7

> <PUBCHEM_MOLECULAR_WEIGHT>
882

> <PUBCHEM_OPENEYE_CAN_SMILES>
CC(C)C(C(=O)N1CCCC1C2=NC=C(N2)C3=CC4=C(C=C3)N5C(OC6=C(C5=C4)C=CC(=C6)C7=CN=C(N7)C8CCCN8C(=O)C(C(C)C)NC(=O)OC)C9=CC=CC=C9)NC(=O)OC

> <PUBCHEM_OPENEYE_ISO_SMILES>
CC(C)[C@@H](C(=O)N1CCC[C@H]1C2=NC=C(N2)C3=CC4=C(C=C3)N5[C@@H](OC6=C(C5=C4)C=CC(=C6)C7=CN=C(N7)[C@@H]8CCCN8C(=O)[C@H](C(C)C)NC(=O)OC)C9=CC=CC=C9)NC(=O)OC

> <PUBCHEM_CACTVS_TPSA>
189

> <PUBCHEM_MONOISOTOPIC_WEIGHT>
881.422445

> <PUBCHEM_TOTAL_CHARGE>
0

> <PUBCHEM_HEAVY_ATOM_COUNT>
65

> <PUBCHEM_ATOM_DEF_STEREO_COUNT>
5

> <PUBCHEM_ATOM_UDEF_STEREO_COUNT>
0

> <PUBCHEM_BOND_DEF_STEREO_COUNT>
0

> <PUBCHEM_BOND_UDEF_STEREO_COUNT>
0

> <PUBCHEM_ISOTOPIC_ATOM_COUNT>
0

> <PUBCHEM_COMPONENT_COUNT>
1

> <PUBCHEM_CACTVS_TAUTO_COUNT>
-1

> <PUBCHEM_COORDINATE_TYPE>
1
5
255

> <PUBCHEM_BONDANNOTATIONS>
10  25  8
10  33  8
11  26  8
11  34  8
12  25  8
12  39  8
13  26  8
13  41  8
14  35  8
14  36  8
29  15  5
30  16  5
17  66  6
18  67  6
33  39  8
34  41  8
35  49  8
36  40  8
36  52  8
37  50  8
37  53  8
38  56  6
40  49  8
40  50  8
44  51  8
44  54  8
47  48  8
47  55  8
48  51  8
52  53  8
54  55  8
56  59  8
56  60  8
59  61  8
60  62  8
61  63  8
62  63  8

$$$$
