769265
  -OEChem-05242006122D

 35 36  0     0  0  0  0  0  0999 V2000
    2.8660    3.6900    0.0000 O   0  0  0  0  0  0  0  0  0  0  0  0
    4.5981   -1.3100    0.0000 O   0  0  0  0  0  0  0  0  0  0  0  0
    3.7320    0.1900    0.0000 N   0  0  0  0  0  0  0  0  0  0  0  0
    2.8660   -1.3100    0.0000 N   0  0  0  0  0  0  0  0  0  0  0  0
    4.5981    3.6900    0.0000 N   0  0  0  0  0  0  0  0  0  0  0  0
    3.7320    2.1900    0.0000 C   0  0  0  0  0  0  0  0  0  0  0  0
    2.8660    1.6900    0.0000 C   0  0  0  0  0  0  0  0  0  0  0  0
    4.5981    1.6900    0.0000 C   0  0  0  0  0  0  0  0  0  0  0  0
    2.8660    0.6900    0.0000 C   0  0  0  0  0  0  0  0  0  0  0  0
    4.5981    0.6900    0.0000 C   0  0  0  0  0  0  0  0  0  0  0  0
    3.7320    3.1900    0.0000 C   0  0  0  0  0  0  0  0  0  0  0  0
    3.7320   -0.8100    0.0000 C   0  0  0  0  0  0  0  0  0  0  0  0
    2.8660   -2.3100    0.0000 C   0  0  0  0  0  0  0  0  0  0  0  0
    2.0000   -2.8100    0.0000 C   0  0  0  0  0  0  0  0  0  0  0  0
    3.7320   -2.8100    0.0000 C   0  0  0  0  0  0  0  0  0  0  0  0
    2.0000   -3.8100    0.0000 C   0  0  0  0  0  0  0  0  0  0  0  0
    3.7320   -3.8100    0.0000 C   0  0  0  0  0  0  0  0  0  0  0  0
    2.8660   -4.3100    0.0000 C   0  0  0  0  0  0  0  0  0  0  0  0
    4.2690    2.5000    0.0000 H   0  0  0  0  0  0  0  0  0  0  0  0
    2.6540    2.2726    0.0000 H   0  0  0  0  0  0  0  0  0  0  0  0
    2.2554    1.5823    0.0000 H   0  0  0  0  0  0  0  0  0  0  0  0
    5.2087    1.5823    0.0000 H   0  0  0  0  0  0  0  0  0  0  0  0
    4.8101    2.2726    0.0000 H   0  0  0  0  0  0  0  0  0  0  0  0
    2.2554    0.7977    0.0000 H   0  0  0  0  0  0  0  0  0  0  0  0
    2.6540    0.1074    0.0000 H   0  0  0  0  0  0  0  0  0  0  0  0
    4.8101    0.1074    0.0000 H   0  0  0  0  0  0  0  0  0  0  0  0
    5.2087    0.7977    0.0000 H   0  0  0  0  0  0  0  0  0  0  0  0
    2.3291   -1.0000    0.0000 H   0  0  0  0  0  0  0  0  0  0  0  0
    4.5981    4.3100    0.0000 H   0  0  0  0  0  0  0  0  0  0  0  0
    5.1350    3.3800    0.0000 H   0  0  0  0  0  0  0  0  0  0  0  0
    1.4631   -2.5000    0.0000 H   0  0  0  0  0  0  0  0  0  0  0  0
    4.2690   -2.5000    0.0000 H   0  0  0  0  0  0  0  0  0  0  0  0
    1.4631   -4.1200    0.0000 H   0  0  0  0  0  0  0  0  0  0  0  0
    4.2690   -4.1200    0.0000 H   0  0  0  0  0  0  0  0  0  0  0  0
    2.8660   -4.9300    0.0000 H   0  0  0  0  0  0  0  0  0  0  0  0
  1 11  2  0  0  0  0
  2 12  2  0  0  0  0
  3  9  1  0  0  0  0
  3 10  1  0  0  0  0
  3 12  1  0  0  0  0
  4 12  1  0  0  0  0
  4 13  1  0  0  0  0
  4 28  1  0  0  0  0
  5 11  1  0  0  0  0
  5 29  1  0  0  0  0
  5 30  1  0  0  0  0
  6  7  1  0  0  0  0
  6  8  1  0  0  0  0
  6 11  1  0  0  0  0
  6 19  1  0  0  0  0
  7  9  1  0  0  0  0
  7 20  1  0  0  0  0
  7 21  1  0  0  0  0
  8 10  1  0  0  0  0
  8 22  1  0  0  0  0
  8 23  1  0  0  0  0
  9 24  1  0  0  0  0
  9 25  1  0  0  0  0
 10 26  1  0  0  0  0
 10 27  1  0  0  0  0
 13 14  2  0  0  0  0
 13 15  1  0  0  0  0
 14 16  1  0  0  0  0
 14 31  1  0  0  0  0
 15 17  2  0  0  0  0
 15 32  1  0  0  0  0
 16 18  2  0  0  0  0
 16 33  1  0  0  0  0
 17 18  1  0  0  0  0
 17 34  1  0  0  0  0
 18 35  1  0  0  0  0
M  END
> <PUBCHEM_COMPOUND_CID>
769265

> <PUBCHEM_COMPOUND_CANONICALIZED>
1

> <PUBCHEM_CACTVS_COMPLEXITY>
305

> <PUBCHEM_CACTVS_HBOND_ACCEPTOR>
2

> <PUBCHEM_CACTVS_HBOND_DONOR>
2

> <PUBCHEM_CACTVS_ROTATABLE_BOND>
2

> <PUBCHEM_CACTVS_SUBSKEYS>
AAADceBzMAAAAAAAAAAAAAAAAAAAAAAAAAA8QAAAAAAAAAABAAAAHgAQAAAADQjBkAQxwIPAAACIACVSUACCAAAhAgAIiAEIZIiIIDLAkZGEIAholgLIyCcUAAAKAAAAAAAAAAAAAAAAAAAAAAAAAAAAAA==

> <PUBCHEM_IUPAC_OPENEYE_NAME>
N1-phenylpiperidine-1,4-dicarboxamide

> <PUBCHEM_IUPAC_CAS_NAME>
N1-phenylpiperidine-1,4-dicarboxamide

> <PUBCHEM_IUPAC_NAME_MARKUP>
1-<I>N</I>-phenylpiperidine-1,4-dicarboxamide

> <PUBCHEM_IUPAC_NAME>
1-N-phenylpiperidine-1,4-dicarboxamide

> <PUBCHEM_IUPAC_SYSTEMATIC_NAME>
N1-phenylpiperidine-1,4-dicarboxamide

> <PUBCHEM_IUPAC_TRADITIONAL_NAME>
N-phenylpiperidine-1,4-dicarboxamide

> <PUBCHEM_IUPAC_INCHI>
InChI=1S/C13H17N3O2/c14-12(17)10-6-8-16(9-7-10)13(18)15-11-4-2-1-3-5-11/h1-5,10H,6-9H2,(H2,14,17)(H,15,18)

> <PUBCHEM_IUPAC_INCHIKEY>
OSBGPHZLIBZPGJ-UHFFFAOYSA-N

> <PUBCHEM_XLOGP3_AA>
0.5

> <PUBCHEM_EXACT_MASS>
247.132077

> <PUBCHEM_MOLECULAR_FORMULA>
C13H17N3O2

> <PUBCHEM_MOLECULAR_WEIGHT>
247.29

> <PUBCHEM_OPENEYE_CAN_SMILES>
C1CN(CCC1C(=O)N)C(=O)NC2=CC=CC=C2

> <PUBCHEM_OPENEYE_ISO_SMILES>
C1CN(CCC1C(=O)N)C(=O)NC2=CC=CC=C2

> <PUBCHEM_CACTVS_TPSA>
75.4

> <PUBCHEM_MONOISOTOPIC_WEIGHT>
247.132077

> <PUBCHEM_TOTAL_CHARGE>
0

> <PUBCHEM_HEAVY_ATOM_COUNT>
18

> <PUBCHEM_ATOM_DEF_STEREO_COUNT>
0

> <PUBCHEM_ATOM_UDEF_STEREO_COUNT>
0

> <PUBCHEM_BOND_DEF_STEREO_COUNT>
0

> <PUBCHEM_BOND_UDEF_STEREO_COUNT>
0

> <PUBCHEM_ISOTOPIC_ATOM_COUNT>
0

> <PUBCHEM_COMPONENT_COUNT>
1

> <PUBCHEM_CACTVS_TAUTO_COUNT>
-1

> <PUBCHEM_COORDINATE_TYPE>
1
5
255

> <PUBCHEM_BONDANNOTATIONS>
13  14  8
13  15  8
14  16  8
15  17  8
16  18  8
17  18  8

$$$$
