790557
  -OEChem-05242006122D

 30 31  0     0  0  0  0  0  0999 V2000
    6.3582    1.7594    0.0000 O   0  0  0  0  0  0  0  0  0  0  0  0
    3.7320   -3.0194    0.0000 O   0  0  0  0  0  0  0  0  0  0  0  0
    4.5981    1.4806    0.0000 N   0  0  0  0  0  0  0  0  0  0  0  0
    2.8660   -1.5194    0.0000 N   0  0  0  0  0  0  0  0  0  0  0  0
    3.7891    2.0684    0.0000 C   0  0  0  0  0  0  0  0  0  0  0  0
    4.0981    3.0194    0.0000 C   0  0  0  0  0  0  0  0  0  0  0  0
    5.0981    3.0194    0.0000 C   0  0  0  0  0  0  0  0  0  0  0  0
    5.4071    2.0684    0.0000 C   0  0  0  0  0  0  0  0  0  0  0  0
    4.5981    0.4806    0.0000 C   0  0  0  0  0  0  0  0  0  0  0  0
    3.7320   -0.0194    0.0000 C   0  0  0  0  0  0  0  0  0  0  0  0
    5.4641   -0.0194    0.0000 C   0  0  0  0  0  0  0  0  0  0  0  0
    3.7320   -1.0194    0.0000 C   0  0  0  0  0  0  0  0  0  0  0  0
    5.4641   -1.0194    0.0000 C   0  0  0  0  0  0  0  0  0  0  0  0
    4.5981   -1.5194    0.0000 C   0  0  0  0  0  0  0  0  0  0  0  0
    2.8660   -2.5194    0.0000 C   0  0  0  0  0  0  0  0  0  0  0  0
    2.0000   -3.0194    0.0000 C   0  0  0  0  0  0  0  0  0  0  0  0
    3.2227    2.3205    0.0000 H   0  0  0  0  0  0  0  0  0  0  0  0
    3.4791    1.5314    0.0000 H   0  0  0  0  0  0  0  0  0  0  0  0
    4.1629    3.6360    0.0000 H   0  0  0  0  0  0  0  0  0  0  0  0
    3.4916    3.1483    0.0000 H   0  0  0  0  0  0  0  0  0  0  0  0
    5.7045    3.1483    0.0000 H   0  0  0  0  0  0  0  0  0  0  0  0
    5.0333    3.6360    0.0000 H   0  0  0  0  0  0  0  0  0  0  0  0
    3.1951    0.2906    0.0000 H   0  0  0  0  0  0  0  0  0  0  0  0
    6.0010    0.2906    0.0000 H   0  0  0  0  0  0  0  0  0  0  0  0
    6.0010   -1.3294    0.0000 H   0  0  0  0  0  0  0  0  0  0  0  0
    4.5981   -2.1394    0.0000 H   0  0  0  0  0  0  0  0  0  0  0  0
    2.3291   -1.2094    0.0000 H   0  0  0  0  0  0  0  0  0  0  0  0
    1.6900   -2.4825    0.0000 H   0  0  0  0  0  0  0  0  0  0  0  0
    1.4631   -3.3294    0.0000 H   0  0  0  0  0  0  0  0  0  0  0  0
    2.3100   -3.5564    0.0000 H   0  0  0  0  0  0  0  0  0  0  0  0
  1  8  2  0  0  0  0
  2 15  2  0  0  0  0
  3  5  1  0  0  0  0
  3  8  1  0  0  0  0
  3  9  1  0  0  0  0
  4 12  1  0  0  0  0
  4 15  1  0  0  0  0
  4 27  1  0  0  0  0
  5  6  1  0  0  0  0
  5 17  1  0  0  0  0
  5 18  1  0  0  0  0
  6  7  1  0  0  0  0
  6 19  1  0  0  0  0
  6 20  1  0  0  0  0
  7  8  1  0  0  0  0
  7 21  1  0  0  0  0
  7 22  1  0  0  0  0
  9 10  1  0  0  0  0
  9 11  2  0  0  0  0
 10 12  2  0  0  0  0
 10 23  1  0  0  0  0
 11 13  1  0  0  0  0
 11 24  1  0  0  0  0
 12 14  1  0  0  0  0
 13 14  2  0  0  0  0
 13 25  1  0  0  0  0
 14 26  1  0  0  0  0
 15 16  1  0  0  0  0
 16 28  1  0  0  0  0
 16 29  1  0  0  0  0
 16 30  1  0  0  0  0
M  END
> <PUBCHEM_COMPOUND_CID>
790557

> <PUBCHEM_COMPOUND_CANONICALIZED>
1

> <PUBCHEM_CACTVS_COMPLEXITY>
291

> <PUBCHEM_CACTVS_HBOND_ACCEPTOR>
2

> <PUBCHEM_CACTVS_HBOND_DONOR>
1

> <PUBCHEM_CACTVS_ROTATABLE_BOND>
2

> <PUBCHEM_CACTVS_SUBSKEYS>
AAADccBzMAAAAAAAAAAAAAAAAAAAAWAAAAAwAAAAAAAAAAABAAAAHgAQAAAACAjBkAQywIPAAACIACVSUACCAAAhAgAIiAEIZIgIIDLA0dGEIAhglgDIyAcUAAAAAAAAAAQAAAAAAAAACAAAAAAAAAAAAA==

> <PUBCHEM_IUPAC_OPENEYE_NAME>
N-[3-(2-oxopyrrolidin-1-yl)phenyl]acetamide

> <PUBCHEM_IUPAC_CAS_NAME>
N-[3-(2-oxo-1-pyrrolidinyl)phenyl]acetamide

> <PUBCHEM_IUPAC_NAME_MARKUP>
<I>N</I>-[3-(2-oxopyrrolidin-1-yl)phenyl]acetamide

> <PUBCHEM_IUPAC_NAME>
N-[3-(2-oxopyrrolidin-1-yl)phenyl]acetamide

> <PUBCHEM_IUPAC_SYSTEMATIC_NAME>
N-[3-(2-oxidanylidenepyrrolidin-1-yl)phenyl]ethanamide

> <PUBCHEM_IUPAC_TRADITIONAL_NAME>
N-[3-(2-ketopyrrolidino)phenyl]acetamide

> <PUBCHEM_IUPAC_INCHI>
InChI=1S/C12H14N2O2/c1-9(15)13-10-4-2-5-11(8-10)14-7-3-6-12(14)16/h2,4-5,8H,3,6-7H2,1H3,(H,13,15)

> <PUBCHEM_IUPAC_INCHIKEY>
CNXMKORZVSCVGQ-UHFFFAOYSA-N

> <PUBCHEM_XLOGP3_AA>
0.5

> <PUBCHEM_EXACT_MASS>
218.105528

> <PUBCHEM_MOLECULAR_FORMULA>
C12H14N2O2

> <PUBCHEM_MOLECULAR_WEIGHT>
218.25

> <PUBCHEM_OPENEYE_CAN_SMILES>
CC(=O)NC1=CC(=CC=C1)N2CCCC2=O

> <PUBCHEM_OPENEYE_ISO_SMILES>
CC(=O)NC1=CC(=CC=C1)N2CCCC2=O

> <PUBCHEM_CACTVS_TPSA>
49.4

> <PUBCHEM_MONOISOTOPIC_WEIGHT>
218.105528

> <PUBCHEM_TOTAL_CHARGE>
0

> <PUBCHEM_HEAVY_ATOM_COUNT>
16

> <PUBCHEM_ATOM_DEF_STEREO_COUNT>
0

> <PUBCHEM_ATOM_UDEF_STEREO_COUNT>
0

> <PUBCHEM_BOND_DEF_STEREO_COUNT>
0

> <PUBCHEM_BOND_UDEF_STEREO_COUNT>
0

> <PUBCHEM_ISOTOPIC_ATOM_COUNT>
0

> <PUBCHEM_COMPONENT_COUNT>
1

> <PUBCHEM_CACTVS_TAUTO_COUNT>
-1

> <PUBCHEM_COORDINATE_TYPE>
1
5
255

> <PUBCHEM_BONDANNOTATIONS>
10  12  8
11  13  8
12  14  8
13  14  8
9  10  8
9  11  8

$$$$
