9810132
  -OEChem-05242006132D

 65 69  0     1  0  0  0  0  0999 V2000
    7.4888   -0.2797    0.0000 S   0  0  0  0  0  0  0  0  0  0  0  0
    5.7567    1.7203    0.0000 S   0  0  0  0  0  0  0  0  0  0  0  0
    3.9771    1.6270    0.0000 S   0  0  0  0  0  0  0  0  0  0  0  0
   14.3229   -0.7753    0.0000 S   0  0  0  0  0  0  0  0  0  0  0  0
   15.6844    0.8085    0.0000 P   0  0  0  0  0  0  0  0  0  0  0  0
   10.0687    1.9330    0.0000 O   0  0  0  0  0  0  0  0  0  0  0  0
    6.6227    3.2203    0.0000 O   0  0  0  0  0  0  0  0  0  0  0  0
    8.3548    3.2203    0.0000 O   0  0  0  0  0  0  0  0  0  0  0  0
   11.2960    0.7298    0.0000 O   0  0  0  0  0  0  0  0  0  0  0  0
   10.5136   -2.1664    0.0000 O   0  0  0  0  0  0  0  0  0  0  0  0
   16.6717    0.6501    0.0000 O   0  0  0  0  0  0  0  0  0  0  0  0
   15.8428    1.7959    0.0000 O   0  0  0  0  0  0  0  0  0  0  0  0
   15.5259   -0.1788    0.0000 O   0  0  0  0  0  0  0  0  0  0  0  0
    8.3548    1.2203    0.0000 N   0  0  0  0  0  0  0  0  0  0  0  0
   10.0687   -0.4924    0.0000 N   0  0  0  0  0  0  0  0  0  0  0  0
    4.7861    0.2258    0.0000 N   0  0  0  0  0  0  0  0  0  0  0  0
   11.4800   -1.9095    0.0000 N   0  0  0  0  0  0  0  0  0  0  0  0
   13.0676    0.2455    0.0000 N   0  0  0  0  0  0  0  0  0  0  0  0
   13.4831   -1.3182    0.0000 N   0  0  0  0  0  0  0  0  0  0  0  0
    2.5878   -2.7228    0.0000 N   0  3  0  0  0  0  0  0  0  0  0  0
   14.6970    0.9670    0.0000 N   0  0  0  0  0  0  0  0  0  0  0  0
    8.3548    0.2203    0.0000 C   0  0  3  0  0  0  0  0  0  0  0  0
    9.3630    0.2162    0.0000 C   0  0  3  0  0  0  0  0  0  0  0  0
    9.3630    1.2244    0.0000 C   0  0  0  0  0  0  0  0  0  0  0  0
    7.4888    1.7203    0.0000 C   0  0  0  0  0  0  0  0  0  0  0  0
    6.6227    0.2203    0.0000 C   0  0  0  0  0  0  0  0  0  0  0  0
    6.6227    1.2203    0.0000 C   0  0  0  0  0  0  0  0  0  0  0  0
    7.4888    2.7203    0.0000 C   0  0  0  0  0  0  0  0  0  0  0  0
   11.0352   -0.2356    0.0000 C   0  0  0  0  0  0  0  0  0  0  0  0
   11.7408   -0.9441    0.0000 C   0  0  0  0  0  0  0  0  0  0  0  0
    4.8907    1.2203    0.0000 C   0  0  0  0  0  0  0  0  0  0  0  0
   12.7073   -0.6873    0.0000 C   0  0  0  0  0  0  0  0  0  0  0  0
    3.8080    0.0179    0.0000 C   0  0  0  0  0  0  0  0  0  0  0  0
    3.3080    0.8839    0.0000 C   0  0  0  0  0  0  0  0  0  0  0  0
    3.4013   -0.8957    0.0000 C   0  0  0  0  0  0  0  0  0  0  0  0
   14.0661    0.1912    0.0000 C   0  0  0  0  0  0  0  0  0  0  0  0
    3.9890   -1.7047    0.0000 C   0  0  0  0  0  0  0  0  0  0  0  0
    2.4067   -1.0002    0.0000 C   0  0  0  0  0  0  0  0  0  0  0  0
   10.2528   -3.1317    0.0000 C   0  0  0  0  0  0  0  0  0  0  0  0
    3.5823   -2.6182    0.0000 C   0  0  0  0  0  0  0  0  0  0  0  0
    2.0000   -1.9138    0.0000 C   0  0  0  0  0  0  0  0  0  0  0  0
    2.1810   -3.6363    0.0000 C   0  0  0  0  0  0  0  0  0  0  0  0
   10.9584   -3.8403    0.0000 C   0  0  0  0  0  0  0  0  0  0  0  0
    8.5140   -0.3789    0.0000 H   0  0  0  0  0  0  0  0  0  0  0  0
    9.9361    0.4528    0.0000 H   0  0  0  0  0  0  0  0  0  0  0  0
    9.9070   -1.0909    0.0000 H   0  0  0  0  0  0  0  0  0  0  0  0
    6.0121    0.3280    0.0000 H   0  0  0  0  0  0  0  0  0  0  0  0
    6.4107   -0.3623    0.0000 H   0  0  0  0  0  0  0  0  0  0  0  0
    6.6227    3.8403    0.0000 H   0  0  0  0  0  0  0  0  0  0  0  0
    2.6914    0.9487    0.0000 H   0  0  0  0  0  0  0  0  0  0  0  0
    4.6056   -1.6399    0.0000 H   0  0  0  0  0  0  0  0  0  0  0  0
    2.0423   -0.4986    0.0000 H   0  0  0  0  0  0  0  0  0  0  0  0
    9.6914   -2.8686    0.0000 H   0  0  0  0  0  0  0  0  0  0  0  0
    9.8961   -3.6389    0.0000 H   0  0  0  0  0  0  0  0  0  0  0  0
    3.9467   -3.1198    0.0000 H   0  0  0  0  0  0  0  0  0  0  0  0
    1.3834   -1.9786    0.0000 H   0  0  0  0  0  0  0  0  0  0  0  0
   14.4760    1.5463    0.0000 H   0  0  0  0  0  0  0  0  0  0  0  0
    1.6146   -3.3841    0.0000 H   0  0  0  0  0  0  0  0  0  0  0  0
    1.9289   -4.2027    0.0000 H   0  0  0  0  0  0  0  0  0  0  0  0
    2.7474   -3.8885    0.0000 H   0  0  0  0  0  0  0  0  0  0  0  0
   10.5191   -4.2778    0.0000 H   0  0  0  0  0  0  0  0  0  0  0  0
   11.3959   -4.2796    0.0000 H   0  0  0  0  0  0  0  0  0  0  0  0
   11.3977   -3.4028    0.0000 H   0  0  0  0  0  0  0  0  0  0  0  0
   17.0629    1.1311    0.0000 H   0  0  0  0  0  0  0  0  0  0  0  0
   16.4221    2.0169    0.0000 H   0  0  0  0  0  0  0  0  0  0  0  0
  1 22  1  0  0  0  0
  1 26  1  0  0  0  0
  2 27  1  0  0  0  0
  2 31  1  0  0  0  0
  3 31  1  0  0  0  0
  3 34  1  0  0  0  0
  4 19  1  0  0  0  0
  4 36  1  0  0  0  0
  5 11  1  0  0  0  0
  5 12  1  0  0  0  0
  5 13  2  0  0  0  0
  5 21  1  0  0  0  0
  6 24  2  0  0  0  0
  7 28  1  0  0  0  0
  7 49  1  0  0  0  0
  8 28  2  0  0  0  0
  9 29  2  0  0  0  0
 10 17  1  0  0  0  0
 10 39  1  0  0  0  0
 11 64  1  0  0  0  0
 12 65  1  0  0  0  0
 14 22  1  0  0  0  0
 14 24  1  0  0  0  0
 14 25  1  0  0  0  0
 15 23  1  0  0  0  0
 15 29  1  0  0  0  0
 15 46  1  0  0  0  0
 16 31  2  0  0  0  0
 16 33  1  0  0  0  0
 17 30  2  0  0  0  0
 18 32  1  0  0  0  0
 18 36  2  0  0  0  0
 19 32  2  0  0  0  0
 20 40  2  0  0  0  0
 20 41  1  0  0  0  0
 20 42  1  0  0  0  0
 21 36  1  0  0  0  0
 21 57  1  0  0  0  0
 22 23  1  0  0  0  0
 22 44  1  0  0  0  0
 23 24  1  0  0  0  0
 23 45  1  0  0  0  0
 25 27  2  0  0  0  0
 25 28  1  0  0  0  0
 26 27  1  0  0  0  0
 26 47  1  0  0  0  0
 26 48  1  0  0  0  0
 29 30  1  0  0  0  0
 30 32  1  0  0  0  0
 33 34  2  0  0  0  0
 33 35  1  0  0  0  0
 34 50  1  0  0  0  0
 35 37  2  0  0  0  0
 35 38  1  0  0  0  0
 37 40  1  0  0  0  0
 37 51  1  0  0  0  0
 38 41  2  0  0  0  0
 38 52  1  0  0  0  0
 39 43  1  0  0  0  0
 39 53  1  0  0  0  0
 39 54  1  0  0  0  0
 40 55  1  0  0  0  0
 41 56  1  0  0  0  0
 42 58  1  0  0  0  0
 42 59  1  0  0  0  0
 42 60  1  0  0  0  0
 43 61  1  0  0  0  0
 43 62  1  0  0  0  0
 43 63  1  0  0  0  0
M  CHG  1  20   1
M  END
> <PUBCHEM_COMPOUND_CID>
9810132

> <PUBCHEM_COMPOUND_CANONICALIZED>
1

> <PUBCHEM_CACTVS_COMPLEXITY>
1220

> <PUBCHEM_CACTVS_HBOND_ACCEPTOR>
17

> <PUBCHEM_CACTVS_HBOND_DONOR>
5

> <PUBCHEM_CACTVS_ROTATABLE_BOND>
11

> <PUBCHEM_CACTVS_SUBSKEYS>
AAADceB7/AJwAAAAAAAAAAAAAABYAWLAAAAsQAAAAAAQAAAB+AAAHgQUyCAADCjl3wa/mZfcEhisQzf3fICC8alxCrkJ2LW4ZNiKbOrg0bGUMAhglgL42QYQAAAKAAAAAAAAAAAAAAAAAAAAAAAAAAAAAA==

> <PUBCHEM_IUPAC_OPENEYE_NAME>
7-[[(2Z)-2-ethoxyimino-2-[5-(phosphonoamino)-1,2,4-thiadiazol-3-yl]acetyl]amino]-3-[4-(1-methylpyridin-1-ium-4-yl)thiazol-2-yl]sulfanyl-8-oxo-5-thia-1-azabicyclo[4.2.0]oct-2-ene-2-carboxylic acid

> <PUBCHEM_IUPAC_CAS_NAME>
7-[[(2Z)-2-ethoxyimino-1-oxo-2-[5-(phosphonoamino)-1,2,4-thiadiazol-3-yl]ethyl]amino]-3-[[4-(1-methyl-4-pyridin-1-iumyl)-2-thiazolyl]thio]-8-oxo-5-thia-1-azabicyclo[4.2.0]oct-2-ene-2-carboxylic acid

> <PUBCHEM_IUPAC_NAME_MARKUP>
7-[[(2<I>Z</I>)-2-ethoxyimino-2-[5-(phosphonoamino)-1,2,4-thiadiazol-3-yl]acetyl]amino]-3-[[4-(1-methylpyridin-1-ium-4-yl)-1,3-thiazol-2-yl]sulfanyl]-8-oxo-5-thia-1-azabicyclo[4.2.0]oct-2-ene-2-carboxylic acid

> <PUBCHEM_IUPAC_NAME>
7-[[(2Z)-2-ethoxyimino-2-[5-(phosphonoamino)-1,2,4-thiadiazol-3-yl]acetyl]amino]-3-[[4-(1-methylpyridin-1-ium-4-yl)-1,3-thiazol-2-yl]sulfanyl]-8-oxo-5-thia-1-azabicyclo[4.2.0]oct-2-ene-2-carboxylic acid

> <PUBCHEM_IUPAC_SYSTEMATIC_NAME>
7-[[(2Z)-2-ethoxyimino-2-[5-(phosphonoamino)-1,2,4-thiadiazol-3-yl]ethanoyl]amino]-3-[[4-(1-methylpyridin-1-ium-4-yl)-1,3-thiazol-2-yl]sulfanyl]-8-oxidanylidene-5-thia-1-azabicyclo[4.2.0]oct-2-ene-2-carboxylic acid

> <PUBCHEM_IUPAC_TRADITIONAL_NAME>
7-[[(2Z)-2-ethyloximino-2-[5-(phosphonoamino)-1,2,4-thiadiazol-3-yl]acetyl]amino]-8-keto-3-[[4-(1-methylpyridin-1-ium-4-yl)thiazol-2-yl]thio]-5-thia-1-azabicyclo[4.2.0]oct-2-ene-2-carboxylic acid

> <PUBCHEM_IUPAC_INCHI>
InChI=1S/C22H21N8O8PS4/c1-3-38-26-13(16-25-21(43-28-16)27-39(35,36)37)17(31)24-14-18(32)30-15(20(33)34)12(9-40-19(14)30)42-22-23-11(8-41-22)10-4-6-29(2)7-5-10/h4-8,14,19H,3,9H2,1-2H3,(H4-,24,25,27,28,31,33,34,35,36,37)/p+1/b26-13-

> <PUBCHEM_IUPAC_INCHIKEY>
ZCCUWMICIWSJIX-ZMFRSBBQSA-O

> <PUBCHEM_XLOGP3_AA>
1.6

> <PUBCHEM_EXACT_MASS>
685.018106

> <PUBCHEM_MOLECULAR_FORMULA>
C22H22N8O8PS4+

> <PUBCHEM_MOLECULAR_WEIGHT>
685.7

> <PUBCHEM_OPENEYE_CAN_SMILES>
CCON=C(C1=NSC(=N1)NP(=O)(O)O)C(=O)NC2C3N(C2=O)C(=C(CS3)SC4=NC(=CS4)C5=CC=[N+](C=C5)C)C(=O)O

> <PUBCHEM_OPENEYE_ISO_SMILES>
CCO/N=C(/C1=NSC(=N1)NP(=O)(O)O)\C(=O)NC2C3N(C2=O)C(=C(CS3)SC4=NC(=CS4)C5=CC=[N+](C=C5)C)C(=O)O

> <PUBCHEM_CACTVS_TPSA>
328

> <PUBCHEM_MONOISOTOPIC_WEIGHT>
685.018106

> <PUBCHEM_TOTAL_CHARGE>
1

> <PUBCHEM_HEAVY_ATOM_COUNT>
43

> <PUBCHEM_ATOM_DEF_STEREO_COUNT>
0

> <PUBCHEM_ATOM_UDEF_STEREO_COUNT>
2

> <PUBCHEM_BOND_DEF_STEREO_COUNT>
1

> <PUBCHEM_BOND_UDEF_STEREO_COUNT>
0

> <PUBCHEM_ISOTOPIC_ATOM_COUNT>
0

> <PUBCHEM_COMPONENT_COUNT>
1

> <PUBCHEM_CACTVS_TAUTO_COUNT>
-1

> <PUBCHEM_COORDINATE_TYPE>
1
5
255

> <PUBCHEM_BONDANNOTATIONS>
22  1  3
23  15  3
16  31  8
16  33  8
18  32  8
18  36  8
19  32  8
20  40  8
20  41  8
3  31  8
3  34  8
33  34  8
35  37  8
35  38  8
37  40  8
38  41  8
4  19  8
4  36  8

$$$$
