9812534
  -OEChem-05242006132D

166169  0     1  0  0  0  0  0999 V2000
   10.5713   -2.7226    0.0000 O   0  0  0  0  0  0  0  0  0  0  0  0
    9.3237   -2.4124    0.0000 O   0  0  0  0  0  0  0  0  0  0  0  0
    8.0915    1.4536    0.0000 O   0  0  0  0  0  0  0  0  0  0  0  0
    5.1635    2.2758    0.0000 O   0  0  0  0  0  0  0  0  0  0  0  0
   11.8801   -1.1773    0.0000 O   0  0  0  0  0  0  0  0  0  0  0  0
   13.7110   -1.9265    0.0000 O   0  0  0  0  0  0  0  0  0  0  0  0
    7.7760    2.6942    0.0000 O   0  0  0  0  0  0  0  0  0  0  0  0
    7.2255   -0.0464    0.0000 O   0  0  0  0  0  0  0  0  0  0  0  0
    3.8542    2.6515    0.0000 O   0  0  0  0  0  0  0  0  0  0  0  0
   11.1896    2.8197    0.0000 O   0  0  0  0  0  0  0  0  0  0  0  0
    9.5380   -3.2408    0.0000 O   0  0  0  0  0  0  0  0  0  0  0  0
   12.4207   -3.2987    0.0000 O   0  0  0  0  0  0  0  0  0  0  0  0
   14.9358   -0.7018    0.0000 O   0  0  0  0  0  0  0  0  0  0  0  0
    2.6490    5.0068    0.0000 O   0  0  0  0  0  0  0  0  0  0  0  0
    9.4576    4.8197    0.0000 O   0  0  0  0  0  0  0  0  0  0  0  0
   11.5556   -1.5464    0.0000 N   0  0  0  0  0  0  0  0  0  0  0  0
    8.9576   -1.0464    0.0000 N   0  0  0  0  0  0  0  0  0  0  0  0
    4.5033    4.2573    0.0000 N   0  0  0  0  0  0  0  0  0  0  0  0
    6.7911    2.8679    0.0000 N   0  0  0  0  0  0  0  0  0  0  0  0
   11.0380   -4.1068    0.0000 N   0  0  0  0  0  0  0  0  0  0  0  0
   11.5556    1.4536    0.0000 N   0  0  0  0  0  0  0  0  0  0  0  0
    8.8839    1.1115    0.0000 N   0  0  0  0  0  0  0  0  0  0  0  0
   10.6896   -1.0464    0.0000 C   0  0  1  0  0  0  0  0  0  0  0  0
   10.7825    0.4486    0.0000 C   0  0  0  0  0  0  0  0  0  0  0  0
   12.2626    0.6781    0.0000 C   0  0  0  0  0  0  0  0  0  0  0  0
   12.8038   -0.7185    0.0000 C   0  0  0  0  0  0  0  0  0  0  0  0
   11.5556   -2.5464    0.0000 C   0  0  0  0  0  0  0  0  0  0  0  0
    9.8236   -1.5464    0.0000 C   0  0  0  0  0  0  0  0  0  0  0  0
   11.9040   -3.6068    0.0000 C   0  0  2  0  0  0  0  0  0  0  0  0
    5.4645    3.9815    0.0000 C   0  0  1  0  0  0  0  0  0  0  0  0
    6.0238    4.8104    0.0000 C   0  0  0  0  0  0  0  0  0  0  0  0
    5.4082    5.5985    0.0000 C   0  0  0  0  0  0  0  0  0  0  0  0
   12.8120   -4.0259    0.0000 C   0  0  0  0  0  0  0  0  0  0  0  0
    4.4685    5.2566    0.0000 C   0  0  0  0  0  0  0  0  0  0  0  0
    8.9576   -0.0464    0.0000 C   0  0  1  0  0  0  0  0  0  0  0  0
    7.1331    1.9282    0.0000 C   0  0  2  0  0  0  0  0  0  0  0  0
    5.8064    3.0418    0.0000 C   0  0  0  0  0  0  0  0  0  0  0  0
   11.5556    0.4536    0.0000 C   0  0  2  0  0  0  0  0  0  0  0  0
   12.9031   -5.0217    0.0000 C   0  0  0  0  0  0  0  0  0  0  0  0
   10.6318    0.0709    0.0000 C   0  0  2  0  0  0  0  0  0  0  0  0
    6.1482    1.7547    0.0000 C   0  0  0  0  0  0  0  0  0  0  0  0
    9.8236    1.4536    0.0000 C   0  0  1  0  0  0  0  0  0  0  0  0
   12.2627   -0.2535    0.0000 C   0  0  2  0  0  0  0  0  0  0  0  0
    8.9576    1.9536    0.0000 C   0  0  1  0  0  0  0  0  0  0  0  0
    9.4576    0.8197    0.0000 C   0  0  0  0  0  0  0  0  0  0  0  0
    5.8061    0.8151    0.0000 C   0  0  0  0  0  0  0  0  0  0  0  0
    8.1178    1.7544    0.0000 C   0  0  0  0  0  0  0  0  0  0  0  0
    8.0915   -1.5464    0.0000 C   0  0  0  0  0  0  0  0  0  0  0  0
    8.0915    0.4536    0.0000 C   0  0  0  0  0  0  0  0  0  0  0  0
    3.7152    3.6417    0.0000 C   0  0  0  0  0  0  0  0  0  0  0  0
   10.6896    1.9536    0.0000 C   0  0  0  0  0  0  0  0  0  0  0  0
   10.0231   -0.7225    0.0000 C   0  0  0  0  0  0  0  0  0  0  0  0
   10.5380   -3.2408    0.0000 C   0  0  0  0  0  0  0  0  0  0  0  0
   13.8110   -5.4408    0.0000 C   0  0  0  0  0  0  0  0  0  0  0  0
   12.0862   -5.5985    0.0000 C   0  0  0  0  0  0  0  0  0  0  0  0
    7.4341    3.6339    0.0000 C   0  0  0  0  0  0  0  0  0  0  0  0
   13.2627   -0.2535    0.0000 C   0  0  0  0  0  0  0  0  0  0  0  0
   11.0380   -2.3748    0.0000 C   0  0  2  0  0  0  0  0  0  0  0  0
   10.2491    0.9948    0.0000 C   0  0  0  0  0  0  0  0  0  0  0  0
    9.4576    1.8197    0.0000 C   0  0  0  0  0  0  0  0  0  0  0  0
   12.7451   -1.6677    0.0000 C   0  0  2  0  0  0  0  0  0  0  0  0
    9.4576    2.8197    0.0000 C   0  0  0  0  0  0  0  0  0  0  0  0
    4.8213    0.6415    0.0000 C   0  0  0  0  0  0  0  0  0  0  0  0
    6.4487    0.0489    0.0000 C   0  0  0  0  0  0  0  0  0  0  0  0
   12.0380   -2.3748    0.0000 C   0  0  0  0  0  0  0  0  0  0  0  0
    8.8828   -0.5723    0.0000 C   0  0  0  0  0  0  0  0  0  0  0  0
   12.3225   -0.7614    0.0000 C   0  0  0  0  0  0  0  0  0  0  0  0
   13.9698   -0.9606    0.0000 C   0  0  0  0  0  0  0  0  0  0  0  0
    2.7881    4.0165    0.0000 C   0  0  0  0  0  0  0  0  0  0  0  0
   10.0532   -2.2012    0.0000 C   0  0  0  0  0  0  0  0  0  0  0  0
    8.5915    2.3197    0.0000 C   0  0  0  0  0  0  0  0  0  0  0  0
   10.3236    2.3197    0.0000 C   0  0  0  0  0  0  0  0  0  0  0  0
   11.3263   -0.6742    0.0000 C   0  0  0  0  0  0  0  0  0  0  0  0
   12.8085    0.2809    0.0000 C   0  0  0  0  0  0  0  0  0  0  0  0
    2.0000    3.4010    0.0000 C   0  0  0  0  0  0  0  0  0  0  0  0
    8.5915    3.3197    0.0000 C   0  0  0  0  0  0  0  0  0  0  0  0
   10.3236    3.3197    0.0000 C   0  0  0  0  0  0  0  0  0  0  0  0
    9.4576    3.8197    0.0000 C   0  0  0  0  0  0  0  0  0  0  0  0
   10.3236    5.3197    0.0000 C   0  0  0  0  0  0  0  0  0  0  0  0
    9.9670   -0.5987    0.0000 H   0  0  0  0  0  0  0  0  0  0  0  0
   10.7318    1.0665    0.0000 H   0  0  0  0  0  0  0  0  0  0  0  0
   10.1625    0.4424    0.0000 H   0  0  0  0  0  0  0  0  0  0  0  0
   12.8553    0.8600    0.0000 H   0  0  0  0  0  0  0  0  0  0  0  0
   12.1238    1.2824    0.0000 H   0  0  0  0  0  0  0  0  0  0  0  0
   13.1085   -1.2585    0.0000 H   0  0  0  0  0  0  0  0  0  0  0  0
   13.3643   -0.4535    0.0000 H   0  0  0  0  0  0  0  0  0  0  0  0
   11.9323   -4.2262    0.0000 H   0  0  0  0  0  0  0  0  0  0  0  0
    5.0416    3.5281    0.0000 H   0  0  0  0  0  0  0  0  0  0  0  0
    6.4987    4.4118    0.0000 H   0  0  0  0  0  0  0  0  0  0  0  0
    6.4698    5.2411    0.0000 H   0  0  0  0  0  0  0  0  0  0  0  0
    5.9341    5.9270    0.0000 H   0  0  0  0  0  0  0  0  0  0  0  0
    5.1365    6.1558    0.0000 H   0  0  0  0  0  0  0  0  0  0  0  0
   13.4298   -4.0775    0.0000 H   0  0  0  0  0  0  0  0  0  0  0  0
   12.9701   -3.4264    0.0000 H   0  0  0  0  0  0  0  0  0  0  0  0
    4.3185    5.8582    0.0000 H   0  0  0  0  0  0  0  0  0  0  0  0
    3.8545    5.1704    0.0000 H   0  0  0  0  0  0  0  0  0  0  0  0
    9.5564   -0.2068    0.0000 H   0  0  0  0  0  0  0  0  0  0  0  0
    7.5316    2.4031    0.0000 H   0  0  0  0  0  0  0  0  0  0  0  0
   10.8489    0.9259    0.0000 H   0  0  0  0  0  0  0  0  0  0  0  0
   13.4095   -4.6641    0.0000 H   0  0  0  0  0  0  0  0  0  0  0  0
   10.0171    0.1519    0.0000 H   0  0  0  0  0  0  0  0  0  0  0  0
    6.1482    2.3747    0.0000 H   0  0  0  0  0  0  0  0  0  0  0  0
    5.5376    1.8624    0.0000 H   0  0  0  0  0  0  0  0  0  0  0  0
   10.8775   -4.7057    0.0000 H   0  0  0  0  0  0  0  0  0  0  0  0
   10.0856    0.8917    0.0000 H   0  0  0  0  0  0  0  0  0  0  0  0
   11.6547   -0.3744    0.0000 H   0  0  0  0  0  0  0  0  0  0  0  0
    8.5192    2.3920    0.0000 H   0  0  0  0  0  0  0  0  0  0  0  0
    9.8561    0.3447    0.0000 H   0  0  0  0  0  0  0  0  0  0  0  0
    8.8587    0.9801    0.0000 H   0  0  0  0  0  0  0  0  0  0  0  0
    6.4167    0.9227    0.0000 H   0  0  0  0  0  0  0  0  0  0  0  0
    7.7815   -1.0094    0.0000 H   0  0  0  0  0  0  0  0  0  0  0  0
    7.5546   -1.8564    0.0000 H   0  0  0  0  0  0  0  0  0  0  0  0
    8.4015   -2.0833    0.0000 H   0  0  0  0  0  0  0  0  0  0  0  0
   12.0926    1.7636    0.0000 H   0  0  0  0  0  0  0  0  0  0  0  0
    8.6720    0.5289    0.0000 H   0  0  0  0  0  0  0  0  0  0  0  0
    9.8366   -1.3138    0.0000 H   0  0  0  0  0  0  0  0  0  0  0  0
   10.5730   -1.0087    0.0000 H   0  0  0  0  0  0  0  0  0  0  0  0
   13.5512   -6.0037    0.0000 H   0  0  0  0  0  0  0  0  0  0  0  0
   14.3740   -5.7006    0.0000 H   0  0  0  0  0  0  0  0  0  0  0  0
   14.0708   -4.8778    0.0000 H   0  0  0  0  0  0  0  0  0  0  0  0
   11.7286   -5.0921    0.0000 H   0  0  0  0  0  0  0  0  0  0  0  0
   11.5797   -5.9562    0.0000 H   0  0  0  0  0  0  0  0  0  0  0  0
   12.4438   -6.1050    0.0000 H   0  0  0  0  0  0  0  0  0  0  0  0
    7.9089    3.2353    0.0000 H   0  0  0  0  0  0  0  0  0  0  0  0
    7.8327    4.1088    0.0000 H   0  0  0  0  0  0  0  0  0  0  0  0
    6.9592    4.0325    0.0000 H   0  0  0  0  0  0  0  0  0  0  0  0
   13.7997    0.0565    0.0000 H   0  0  0  0  0  0  0  0  0  0  0  0
   13.1023    0.3454    0.0000 H   0  0  0  0  0  0  0  0  0  0  0  0
   11.0920   -1.7572    0.0000 H   0  0  0  0  0  0  0  0  0  0  0  0
   10.8219    1.2321    0.0000 H   0  0  0  0  0  0  0  0  0  0  0  0
   10.0118    1.5676    0.0000 H   0  0  0  0  0  0  0  0  0  0  0  0
    9.6763    0.7576    0.0000 H   0  0  0  0  0  0  0  0  0  0  0  0
   13.1436   -1.1927    0.0000 H   0  0  0  0  0  0  0  0  0  0  0  0
    9.9945    2.5097    0.0000 H   0  0  0  0  0  0  0  0  0  0  0  0
    9.7676    3.3566    0.0000 H   0  0  0  0  0  0  0  0  0  0  0  0
    8.9206    3.1297    0.0000 H   0  0  0  0  0  0  0  0  0  0  0  0
    4.7137    1.2521    0.0000 H   0  0  0  0  0  0  0  0  0  0  0  0
    4.2107    0.5339    0.0000 H   0  0  0  0  0  0  0  0  0  0  0  0
    4.9289    0.0309    0.0000 H   0  0  0  0  0  0  0  0  0  0  0  0
    5.9737   -0.3495    0.0000 H   0  0  0  0  0  0  0  0  0  0  0  0
    6.8472   -0.4261    0.0000 H   0  0  0  0  0  0  0  0  0  0  0  0
    6.9238    0.4474    0.0000 H   0  0  0  0  0  0  0  0  0  0  0  0
    8.9638    0.0424    0.0000 H   0  0  0  0  0  0  0  0  0  0  0  0
    8.2682   -0.4914    0.0000 H   0  0  0  0  0  0  0  0  0  0  0  0
    8.8019   -1.1870    0.0000 H   0  0  0  0  0  0  0  0  0  0  0  0
   12.9425   -0.7614    0.0000 H   0  0  0  0  0  0  0  0  0  0  0  0
   10.1609   -1.5906    0.0000 H   0  0  0  0  0  0  0  0  0  0  0  0
    9.4426   -2.0935    0.0000 H   0  0  0  0  0  0  0  0  0  0  0  0
    9.9455   -2.8117    0.0000 H   0  0  0  0  0  0  0  0  0  0  0  0
   12.1663   -1.7273    0.0000 H   0  0  0  0  0  0  0  0  0  0  0  0
    8.0546    2.0097    0.0000 H   0  0  0  0  0  0  0  0  0  0  0  0
   10.8605    2.0097    0.0000 H   0  0  0  0  0  0  0  0  0  0  0  0
   11.3803   -0.0566    0.0000 H   0  0  0  0  0  0  0  0  0  0  0  0
   10.7087   -0.6202    0.0000 H   0  0  0  0  0  0  0  0  0  0  0  0
   11.2723   -1.2919    0.0000 H   0  0  0  0  0  0  0  0  0  0  0  0
   13.3704    0.0189    0.0000 H   0  0  0  0  0  0  0  0  0  0  0  0
   13.0705    0.8428    0.0000 H   0  0  0  0  0  0  0  0  0  0  0  0
   12.2466    0.5429    0.0000 H   0  0  0  0  0  0  0  0  0  0  0  0
    1.6184    3.8896    0.0000 H   0  0  0  0  0  0  0  0  0  0  0  0
    1.5114    3.0194    0.0000 H   0  0  0  0  0  0  0  0  0  0  0  0
    2.3816    2.9124    0.0000 H   0  0  0  0  0  0  0  0  0  0  0  0
    8.0546    3.6297    0.0000 H   0  0  0  0  0  0  0  0  0  0  0  0
   10.8605    3.6297    0.0000 H   0  0  0  0  0  0  0  0  0  0  0  0
   10.6336    4.7827    0.0000 H   0  0  0  0  0  0  0  0  0  0  0  0
   10.8605    5.6297    0.0000 H   0  0  0  0  0  0  0  0  0  0  0  0
   10.0136    5.8566    0.0000 H   0  0  0  0  0  0  0  0  0  0  0  0
  1 27  2  0  0  0  0
  2 28  2  0  0  0  0
  3 44  1  0  0  0  0
  3 49  1  0  0  0  0
  4 37  2  0  0  0  0
 43  5  1  6  0  0  0
  5150  1  0  0  0  0
  6 61  1  0  0  0  0
  6 68  1  0  0  0  0
  7 47  2  0  0  0  0
  8 49  2  0  0  0  0
  9 50  2  0  0  0  0
 10 51  2  0  0  0  0
 11 53  2  0  0  0  0
 12 65  2  0  0  0  0
 13 68  2  0  0  0  0
 14 69  2  0  0  0  0
 15 78  1  0  0  0  0
 15 79  1  0  0  0  0
 16 23  1  0  0  0  0
 16 26  1  0  0  0  0
 16 27  1  0  0  0  0
 17 28  1  0  0  0  0
 17 35  1  0  0  0  0
 17 48  1  0  0  0  0
 18 30  1  0  0  0  0
 18 34  1  0  0  0  0
 18 50  1  0  0  0  0
 36 19  1  1  0  0  0
 19 37  1  0  0  0  0
 19 56  1  0  0  0  0
 20 29  1  0  0  0  0
 20 53  1  0  0  0  0
 20104  1  0  0  0  0
 21 38  1  0  0  0  0
 21 51  1  0  0  0  0
 21114  1  0  0  0  0
 42 22  1  1  0  0  0
 22 47  1  0  0  0  0
 22115  1  0  0  0  0
 23 24  1  0  0  0  0
 23 28  1  0  0  0  0
 23 80  1  1  0  0  0
 24 25  1  0  0  0  0
 24 81  1  0  0  0  0
 24 82  1  0  0  0  0
 25 26  1  0  0  0  0
 25 83  1  0  0  0  0
 25 84  1  0  0  0  0
 26 85  1  0  0  0  0
 26 86  1  0  0  0  0
 27 29  1  0  0  0  0
 29 33  1  6  0  0  0
 29 87  1  0  0  0  0
 30 31  1  0  0  0  0
 30 37  1  1  0  0  0
 30 88  1  0  0  0  0
 31 32  1  0  0  0  0
 31 89  1  0  0  0  0
 31 90  1  0  0  0  0
 32 34  1  0  0  0  0
 32 91  1  0  0  0  0
 32 92  1  0  0  0  0
 33 39  1  0  0  0  0
 33 93  1  0  0  0  0
 33 94  1  0  0  0  0
 34 95  1  0  0  0  0
 34 96  1  0  0  0  0
 35 45  1  6  0  0  0
 35 49  1  0  0  0  0
 35 97  1  0  0  0  0
 36 41  1  0  0  0  0
 36 47  1  0  0  0  0
 36 98  1  0  0  0  0
 38 40  1  0  0  0  0
 38 43  1  0  0  0  0
 38 99  1  6  0  0  0
 39 54  1  0  0  0  0
 39 55  1  0  0  0  0
 39100  1  0  0  0  0
 40 52  1  0  0  0  0
 40 59  1  6  0  0  0
 40101  1  0  0  0  0
 41 46  1  0  0  0  0
 41102  1  0  0  0  0
 41103  1  0  0  0  0
 42 44  1  0  0  0  0
 42 51  1  0  0  0  0
 42105  1  0  0  0  0
 43 57  1  0  0  0  0
 43106  1  0  0  0  0
 44 62  1  6  0  0  0
 44107  1  0  0  0  0
 45 60  1  0  0  0  0
 45108  1  0  0  0  0
 45109  1  0  0  0  0
 46 63  1  0  0  0  0
 46 64  1  0  0  0  0
 46110  1  0  0  0  0
 48111  1  0  0  0  0
 48112  1  0  0  0  0
 48113  1  0  0  0  0
 50 69  1  0  0  0  0
 52 66  1  0  0  0  0
 52116  1  0  0  0  0
 52117  1  0  0  0  0
 53 58  1  0  0  0  0
 54118  1  0  0  0  0
 54119  1  0  0  0  0
 54120  1  0  0  0  0
 55121  1  0  0  0  0
 55122  1  0  0  0  0
 55123  1  0  0  0  0
 56124  1  0  0  0  0
 56125  1  0  0  0  0
 56126  1  0  0  0  0
 57 68  1  0  0  0  0
 57127  1  0  0  0  0
 57128  1  0  0  0  0
 58 65  1  0  0  0  0
 58 70  1  1  0  0  0
 58129  1  0  0  0  0
 59130  1  0  0  0  0
 59131  1  0  0  0  0
 59132  1  0  0  0  0
 60 71  2  0  0  0  0
 60 72  1  0  0  0  0
 61 65  1  0  0  0  0
 61 67  1  6  0  0  0
 61133  1  0  0  0  0
 62134  1  0  0  0  0
 62135  1  0  0  0  0
 62136  1  0  0  0  0
 63137  1  0  0  0  0
 63138  1  0  0  0  0
 63139  1  0  0  0  0
 64140  1  0  0  0  0
 64141  1  0  0  0  0
 64142  1  0  0  0  0
 66143  1  0  0  0  0
 66144  1  0  0  0  0
 66145  1  0  0  0  0
 67 73  1  0  0  0  0
 67 74  1  0  0  0  0
 67146  1  0  0  0  0
 69 75  1  0  0  0  0
 70147  1  0  0  0  0
 70148  1  0  0  0  0
 70149  1  0  0  0  0
 71 76  1  0  0  0  0
 71151  1  0  0  0  0
 72 77  2  0  0  0  0
 72152  1  0  0  0  0
 73153  1  0  0  0  0
 73154  1  0  0  0  0
 73155  1  0  0  0  0
 74156  1  0  0  0  0
 74157  1  0  0  0  0
 74158  1  0  0  0  0
 75159  1  0  0  0  0
 75160  1  0  0  0  0
 75161  1  0  0  0  0
 76 78  2  0  0  0  0
 76162  1  0  0  0  0
 77 78  1  0  0  0  0
 77163  1  0  0  0  0
 79164  1  0  0  0  0
 79165  1  0  0  0  0
 79166  1  0  0  0  0
M  END
> <PUBCHEM_COMPOUND_CID>
9812534

> <PUBCHEM_COMPOUND_CANONICALIZED>
1

> <PUBCHEM_CACTVS_COMPLEXITY>
2200

> <PUBCHEM_CACTVS_HBOND_ACCEPTOR>
15

> <PUBCHEM_CACTVS_HBOND_DONOR>
4

> <PUBCHEM_CACTVS_ROTATABLE_BOND>
15

> <PUBCHEM_CACTVS_SUBSKEYS>
AAADcfB/vAAAAAAAAAAAAAAAAAAAAWLAAAAwAAAAAAAAAAABAAAAHgAQCAAADTzhmAYyDoPABgCIAqHSGAICCAAgIAAIiIHOCIgOdj6MsT+XcCAn9hGYqAe+ybCOIAAAAAAAAABAAAAAAAAAAAAAAAAAAA==

> <PUBCHEM_IUPAC_OPENEYE_NAME>
(2S)-N-[(1R)-1-[[(3S,6S,8S,12S,13R,16S,17R,20S,23S)-12-hydroxy-3-isobutyl-8-isopropyl-20-[(4-methoxyphenyl)methyl]-6,17,21-trimethyl-13-[(1S)-1-methylpropyl]-2,5,7,10,15,19,22-heptaoxo-9,18-dioxa-1,4,14,21-tetrazabicyclo[21.3.0]hexacosan-16-yl]carbamoyl]-3-methyl-butyl]-N-methyl-1-(2-oxopropanoyl)pyrrolidine-2-carboxamide

> <PUBCHEM_IUPAC_CAS_NAME>
(2S)-N-[(2R)-1-[[(3S,6S,8S,12S,13R,16S,17R,20S,23S)-13-[(2S)-butan-2-yl]-12-hydroxy-20-[(4-methoxyphenyl)methyl]-6,17,21-trimethyl-3-(2-methylpropyl)-2,5,7,10,15,19,22-heptaoxo-8-propan-2-yl-9,18-dioxa-1,4,14,21-tetrazabicyclo[21.3.0]hexacosan-16-yl]amino]-4-methyl-1-oxopentan-2-yl]-1-(1,2-dioxopropyl)-N-methyl-2-pyrrolidinecarboxamide

> <PUBCHEM_IUPAC_NAME_MARKUP>
(2<I>S</I>)-<I>N</I>-[(2<I>R</I>)-1-[[(3<I>S</I>,6<I>S</I>,8<I>S</I>,12<I>S</I>,13<I>R</I>,16<I>S</I>,17<I>R</I>,20<I>S</I>,23<I>S</I>)-13-[(2<I>S</I>)-butan-2-yl]-12-hydroxy-20-[(4-methoxyphenyl)methyl]-6,17,21-trimethyl-3-(2-methylpropyl)-2,5,7,10,15,19,22-heptaoxo-8-propan-2-yl-9,18-dioxa-1,4,14,21-tetrazabicyclo[21.3.0]hexacosan-16-yl]amino]-4-methyl-1-oxopentan-2-yl]-<I>N</I>-methyl-1-(2-oxopropanoyl)pyrrolidine-2-carboxamide

> <PUBCHEM_IUPAC_NAME>
(2S)-N-[(2R)-1-[[(3S,6S,8S,12S,13R,16S,17R,20S,23S)-13-[(2S)-butan-2-yl]-12-hydroxy-20-[(4-methoxyphenyl)methyl]-6,17,21-trimethyl-3-(2-methylpropyl)-2,5,7,10,15,19,22-heptaoxo-8-propan-2-yl-9,18-dioxa-1,4,14,21-tetrazabicyclo[21.3.0]hexacosan-16-yl]amino]-4-methyl-1-oxopentan-2-yl]-N-methyl-1-(2-oxopropanoyl)pyrrolidine-2-carboxamide

> <PUBCHEM_IUPAC_SYSTEMATIC_NAME>
(2S)-N-[(2R)-1-[[(3S,6S,8S,12S,13R,16S,17R,20S,23S)-13-[(2S)-butan-2-yl]-20-[(4-methoxyphenyl)methyl]-6,17,21-trimethyl-3-(2-methylpropyl)-12-oxidanyl-2,5,7,10,15,19,22-heptakis(oxidanylidene)-8-propan-2-yl-9,18-dioxa-1,4,14,21-tetrazabicyclo[21.3.0]hexacosan-16-yl]amino]-4-methyl-1-oxidanylidene-pentan-2-yl]-N-methyl-1-(2-oxidanylidenepropanoyl)pyrrolidine-2-carboxamide

> <PUBCHEM_IUPAC_TRADITIONAL_NAME>
(2S)-N-[(1R)-1-[[(3S,6S,8S,12S,13R,16S,17R,20S,23S)-12-hydroxy-3-isobutyl-8-isopropyl-2,5,7,10,15,19,22-heptaketo-6,17,21-trimethyl-13-[(1S)-1-methylpropyl]-20-p-anisyl-9,18-dioxa-1,4,14,21-tetrazabicyclo[21.3.0]hexacosan-16-yl]carbamoyl]-3-methyl-butyl]-N-methyl-1-pyruvoyl-pyrrolidine-2-carboxamide

> <PUBCHEM_IUPAC_INCHI>
InChI=1S/C57H87N7O15/c1-15-33(8)46-44(66)29-45(67)79-49(32(6)7)48(68)34(9)50(69)58-39(26-30(2)3)54(73)64-25-17-19-41(64)56(75)62(13)43(28-37-20-22-38(77-14)23-21-37)57(76)78-36(11)47(52(71)59-46)60-51(70)42(27-31(4)5)61(12)55(74)40-18-16-24-63(40)53(72)35(10)65/h20-23,30-34,36,39-44,46-47,49,66H,15-19,24-29H2,1-14H3,(H,58,69)(H,59,71)(H,60,70)/t33-,34-,36+,39-,40-,41-,42+,43-,44-,46+,47-,49-/m0/s1

> <PUBCHEM_IUPAC_INCHIKEY>
UUSZLLQJYRSZIS-LXNNNBEUSA-N

> <PUBCHEM_XLOGP3_AA>
5.7

> <PUBCHEM_EXACT_MASS>
1109.626015

> <PUBCHEM_MOLECULAR_FORMULA>
C57H87N7O15

> <PUBCHEM_MOLECULAR_WEIGHT>
1110.3

> <PUBCHEM_OPENEYE_CAN_SMILES>
CCC(C)C1C(CC(=O)OC(C(=O)C(C(=O)NC(C(=O)N2CCCC2C(=O)N(C(C(=O)OC(C(C(=O)N1)NC(=O)C(CC(C)C)N(C)C(=O)C3CCCN3C(=O)C(=O)C)C)CC4=CC=C(C=C4)OC)C)CC(C)C)C)C(C)C)O

> <PUBCHEM_OPENEYE_ISO_SMILES>
CC[C@H](C)[C@@H]1[C@H](CC(=O)O[C@H](C(=O)[C@@H](C(=O)N[C@H](C(=O)N2CCC[C@H]2C(=O)N([C@H](C(=O)O[C@@H]([C@@H](C(=O)N1)NC(=O)[C@@H](CC(C)C)N(C)C(=O)[C@@H]3CCCN3C(=O)C(=O)C)C)CC4=CC=C(C=C4)OC)C)CC(C)C)C)C(C)C)O

> <PUBCHEM_CACTVS_TPSA>
285

> <PUBCHEM_MONOISOTOPIC_WEIGHT>
1109.626015

> <PUBCHEM_TOTAL_CHARGE>
0

> <PUBCHEM_HEAVY_ATOM_COUNT>
79

> <PUBCHEM_ATOM_DEF_STEREO_COUNT>
12

> <PUBCHEM_ATOM_UDEF_STEREO_COUNT>
0

> <PUBCHEM_BOND_DEF_STEREO_COUNT>
0

> <PUBCHEM_BOND_UDEF_STEREO_COUNT>
0

> <PUBCHEM_ISOTOPIC_ATOM_COUNT>
0

> <PUBCHEM_COMPONENT_COUNT>
1

> <PUBCHEM_CACTVS_TAUTO_COUNT>
-1

> <PUBCHEM_COORDINATE_TYPE>
1
5
255

> <PUBCHEM_BONDANNOTATIONS>
36  19  5
42  22  5
23  80  5
29  33  6
30  37  5
35  45  6
38  99  6
40  59  6
44  62  6
43  5  6
58  70  5
60  71  8
60  72  8
61  67  6
71  76  8
72  77  8
76  78  8
77  78  8

$$$$
