9812710
  -OEChem-05242006132D

269281  0     1  0  0  0  0  0999 V2000
   13.1101    3.8151    0.0000 O   0  0  0  0  0  0  0  0  0  0  0  0
   12.3168    4.4239    0.0000 O   0  0  0  0  0  0  0  0  0  0  0  0
    6.6663   17.0240    0.0000 O   0  0  0  0  0  0  0  0  0  0  0  0
    6.6663   18.0240    0.0000 O   0  0  0  0  0  0  0  0  0  0  0  0
   12.7083    7.3982    0.0000 O   0  0  0  0  0  0  0  0  0  0  0  0
    4.0682   19.5240    0.0000 O   0  0  0  0  0  0  0  0  0  0  0  0
   12.4221   11.6989    0.0000 O   0  0  0  0  0  0  0  0  0  0  0  0
    2.7095   23.4679    0.0000 O   0  0  0  0  0  0  0  0  0  0  0  0
   12.4758   11.1754    0.0000 O   0  0  0  0  0  0  0  0  0  0  0  0
    2.8602   22.9637    0.0000 O   0  0  0  0  0  0  0  0  0  0  0  0
   14.7802   11.6801    0.0000 O   0  0  0  0  0  0  0  0  0  0  0  0
    0.5381   22.5482    0.0000 O   0  0  0  0  0  0  0  0  0  0  0  0
   11.5906    7.7477    0.0000 O   0  0  0  0  0  0  0  0  0  0  0  0
    5.0682   20.5240    0.0000 O   0  0  0  0  0  0  0  0  0  0  0  0
    8.0163    6.3589    0.0000 O   0  0  0  0  0  0  0  0  0  0  0  0
    9.2644   22.5240    0.0000 O   0  0  0  0  0  0  0  0  0  0  0  0
    7.1502    7.8589    0.0000 O   0  0  0  0  0  0  0  0  0  0  0  0
   10.9965   22.5240    0.0000 O   0  0  0  0  0  0  0  0  0  0  0  0
    4.5522    8.3589    0.0000 O   0  0  0  0  0  0  0  0  0  0  0  0
   12.7285   20.5240    0.0000 O   0  0  0  0  0  0  0  0  0  0  0  0
    4.5522    6.3589    0.0000 O   0  0  0  0  0  0  0  0  0  0  0  0
   10.9965   19.5240    0.0000 O   0  0  0  0  0  0  0  0  0  0  0  0
    2.8201    8.3589    0.0000 O   0  0  0  0  0  0  0  0  0  0  0  0
   14.4606   20.5240    0.0000 O   0  0  0  0  0  0  0  0  0  0  0  0
    2.8201    5.3589    0.0000 O   0  0  0  0  0  0  0  0  0  0  0  0
   14.4606   23.5240    0.0000 O   0  0  0  0  0  0  0  0  0  0  0  0
    1.0881    6.3589    0.0000 O   0  0  0  0  0  0  0  0  0  0  0  0
   16.1926   22.5240    0.0000 O   0  0  0  0  0  0  0  0  0  0  0  0
   13.2406    4.8066    0.0000 C   0  0  2  0  0  0  0  0  0  0  0  0
   13.9035    3.2064    0.0000 C   0  0  1  0  0  0  0  0  0  0  0  0
   14.8273    3.5890    0.0000 C   0  0  2  0  0  0  0  0  0  0  0  0
   14.1645    5.1892    0.0000 C   0  0  0  0  0  0  0  0  0  0  0  0
    5.8003   17.5240    0.0000 C   0  0  2  0  0  0  0  0  0  0  0  0
   13.3712    5.7980    0.0000 C   0  0  0  0  0  0  0  0  0  0  0  0
   14.9579    4.5805    0.0000 C   0  0  0  0  0  0  0  0  0  0  0  0
   12.5778    6.4068    0.0000 C   0  0  2  0  0  0  0  0  0  0  0  0
    4.9343   17.0240    0.0000 C   0  0  0  0  0  0  0  0  0  0  0  0
    6.6663   16.0240    0.0000 C   0  0  1  0  0  0  0  0  0  0  0  0
    5.8003   15.5240    0.0000 C   0  0  2  0  0  0  0  0  0  0  0  0
    4.9343   18.0240    0.0000 C   0  0  0  0  0  0  0  0  0  0  0  0
   13.7729    2.2149    0.0000 C   0  0  2  0  0  0  0  0  0  0  0  0
   11.5234    5.0326    0.0000 C   0  0  1  0  0  0  0  0  0  0  0  0
   11.6539    6.0241    0.0000 C   0  0  0  0  0  0  0  0  0  0  0  0
    4.9343   16.0240    0.0000 C   0  0  0  0  0  0  0  0  0  0  0  0
    4.9343   19.0240    0.0000 C   0  0  2  0  0  0  0  0  0  0  0  0
    6.6663   19.0240    0.0000 C   0  0  1  0  0  0  0  0  0  0  0  0
    5.8003   19.5240    0.0000 C   0  0  0  0  0  0  0  0  0  0  0  0
    7.5324   15.5240    0.0000 C   0  0  0  0  0  0  0  0  0  0  0  0
   15.6207    2.9803    0.0000 C   0  0  0  0  0  0  0  0  0  0  0  0
   12.5195   10.1764    0.0000 C   0  0  2  0  0  0  0  0  0  0  0  0
   10.5995    4.6499    0.0000 C   0  0  0  0  0  0  0  0  0  0  0  0
   14.5663    1.6061    0.0000 C   0  0  0  0  0  0  0  0  0  0  0  0
   12.9021    9.2525    0.0000 C   0  0  2  0  0  0  0  0  0  0  0  0
    3.2022   22.0240    0.0000 C   0  0  2  0  0  0  0  0  0  0  0  0
   13.1407   11.0124    0.0000 C   0  0  1  0  0  0  0  0  0  0  0  0
    5.8003   14.5240    0.0000 C   0  0  0  0  0  0  0  0  0  0  0  0
   12.8491    1.8322    0.0000 C   0  0  0  0  0  0  0  0  0  0  0  0
    3.2022   21.0240    0.0000 C   0  0  2  0  0  0  0  0  0  0  0  0
    2.3083   22.5587    0.0000 C   0  0  1  0  0  0  0  0  0  0  0  0
    7.5324   19.5240    0.0000 C   0  0  0  0  0  0  0  0  0  0  0  0
   12.2934    8.4591    0.0000 C   0  0  0  0  0  0  0  0  0  0  0  0
   14.1745   10.8844    0.0000 C   0  0  1  0  0  0  0  0  0  0  0  0
   11.5280   10.3069    0.0000 C   0  0  0  0  0  0  0  0  0  0  0  0
    1.4022   22.0448    0.0000 C   0  0  1  0  0  0  0  0  0  0  0  0
    7.5324   14.5240    0.0000 C   0  0  0  0  0  0  0  0  0  0  0  0
    8.3984   16.0240    0.0000 C   0  0  0  0  0  0  0  0  0  0  0  0
    4.0682   20.5240    0.0000 C   0  0  0  0  0  0  0  0  0  0  0  0
    4.0682   22.5240    0.0000 C   0  0  0  0  0  0  0  0  0  0  0  0
   13.9326    9.1006    0.0000 C   0  0  0  0  0  0  0  0  0  0  0  0
   14.5731    9.9221    0.0000 C   0  0  0  0  0  0  0  0  0  0  0  0
   11.5116   11.3006    0.0000 C   0  0  0  0  0  0  0  0  0  0  0  0
    2.3083   20.4894    0.0000 C   0  0  0  0  0  0  0  0  0  0  0  0
    9.8062    5.2587    0.0000 C   0  0  0  0  0  0  0  0  0  0  0  0
   14.4358    0.6147    0.0000 C   0  0  0  0  0  0  0  0  0  0  0  0
    1.4022   21.0032    0.0000 C   0  0  0  0  0  0  0  0  0  0  0  0
    3.7031   23.4483    0.0000 C   0  0  0  0  0  0  0  0  0  0  0  0
    7.5324   20.5240    0.0000 C   0  0  0  0  0  0  0  0  0  0  0  0
    9.6756    6.2502    0.0000 C   0  0  0  0  0  0  0  0  0  0  0  0
   10.9193    9.5135    0.0000 C   0  0  0  0  0  0  0  0  0  0  0  0
    4.9343   22.0240    0.0000 C   0  0  0  0  0  0  0  0  0  0  0  0
    8.8823    6.8589    0.0000 C   0  0  2  0  0  0  0  0  0  0  0  0
    8.3984   21.0240    0.0000 C   0  0  0  0  0  0  0  0  0  0  0  0
   15.5640    9.7877    0.0000 C   0  0  0  0  0  0  0  0  0  0  0  0
    0.5381   20.4999    0.0000 C   0  0  0  0  0  0  0  0  0  0  0  0
    8.3984   22.0240    0.0000 C   0  0  2  0  0  0  0  0  0  0  0  0
    8.7518    7.8504    0.0000 C   0  0  2  0  0  0  0  0  0  0  0  0
    7.5324   22.5240    0.0000 C   0  0  2  0  0  0  0  0  0  0  0  0
    9.9278    9.3830    0.0000 C   0  0  0  0  0  0  0  0  0  0  0  0
   10.5417    6.7502    0.0000 C   0  0  0  0  0  0  0  0  0  0  0  0
    5.8003   22.5240    0.0000 C   0  0  0  0  0  0  0  0  0  0  0  0
    9.5451    8.4591    0.0000 C   0  0  0  0  0  0  0  0  0  0  0  0
    9.2644   20.5240    0.0000 C   0  0  0  0  0  0  0  0  0  0  0  0
    6.6663   22.0240    0.0000 C   0  0  0  0  0  0  0  0  0  0  0  0
    7.1502    6.8589    0.0000 C   0  0  2  0  0  0  0  0  0  0  0  0
    7.8279    8.2330    0.0000 C   0  0  0  0  0  0  0  0  0  0  0  0
   10.1304   22.0240    0.0000 C   0  0  2  0  0  0  0  0  0  0  0  0
    7.5324   23.5240    0.0000 C   0  0  0  0  0  0  0  0  0  0  0  0
    6.2842    6.3589    0.0000 C   0  0  0  0  0  0  0  0  0  0  0  0
    5.4182    6.8589    0.0000 C   0  0  1  0  0  0  0  0  0  0  0  0
   10.1304   21.0240    0.0000 C   0  0  0  0  0  0  0  0  0  0  0  0
    5.4182    7.8589    0.0000 C   0  0  2  0  0  0  0  0  0  0  0  0
    6.2842    8.3589    0.0000 C   0  0  2  0  0  0  0  0  0  0  0  0
   10.9965   20.5240    0.0000 C   0  0  1  0  0  0  0  0  0  0  0  0
   11.8625   21.0240    0.0000 C   0  0  2  0  0  0  0  0  0  0  0  0
   11.8625   22.0240    0.0000 C   0  0  2  0  0  0  0  0  0  0  0  0
    6.2842    9.3589    0.0000 C   0  0  0  0  0  0  0  0  0  0  0  0
   12.7285   22.5240    0.0000 C   0  0  0  0  0  0  0  0  0  0  0  0
    3.6861    7.8589    0.0000 C   0  0  2  0  0  0  0  0  0  0  0  0
   13.5945   21.0240    0.0000 C   0  0  2  0  0  0  0  0  0  0  0  0
    3.6861    6.8589    0.0000 C   0  0  0  0  0  0  0  0  0  0  0  0
   13.5945   22.0240    0.0000 C   0  0  0  0  0  0  0  0  0  0  0  0
    2.8201    6.3589    0.0000 C   0  0  1  0  0  0  0  0  0  0  0  0
   14.4606   22.5240    0.0000 C   0  0  1  0  0  0  0  0  0  0  0  0
    1.9541    6.8589    0.0000 C   0  0  2  0  0  0  0  0  0  0  0  0
    1.9541    7.8589    0.0000 C   0  0  2  0  0  0  0  0  0  0  0  0
   15.3266   22.0240    0.0000 C   0  0  2  0  0  0  0  0  0  0  0  0
   15.3266   21.0240    0.0000 C   0  0  2  0  0  0  0  0  0  0  0  0
    4.5522    5.3589    0.0000 C   0  0  0  0  0  0  0  0  0  0  0  0
   11.8625   19.0240    0.0000 C   0  0  0  0  0  0  0  0  0  0  0  0
    1.0881    8.3589    0.0000 C   0  0  0  0  0  0  0  0  0  0  0  0
   16.1926   20.5240    0.0000 C   0  0  0  0  0  0  0  0  0  0  0  0
    3.6861    4.8589    0.0000 C   0  0  0  0  0  0  0  0  0  0  0  0
   15.3266   24.0240    0.0000 C   0  0  0  0  0  0  0  0  0  0  0  0
   14.5778    2.6889    0.0000 H   0  0  0  0  0  0  0  0  0  0  0  0
   15.4002    3.8263    0.0000 H   0  0  0  0  0  0  0  0  0  0  0  0
   14.6216    5.6081    0.0000 H   0  0  0  0  0  0  0  0  0  0  0  0
   13.8314    5.7121    0.0000 H   0  0  0  0  0  0  0  0  0  0  0  0
   13.9625    5.6116    0.0000 H   0  0  0  0  0  0  0  0  0  0  0  0
   13.6575    6.3479    0.0000 H   0  0  0  0  0  0  0  0  0  0  0  0
   15.5492    4.3940    0.0000 H   0  0  0  0  0  0  0  0  0  0  0  0
   15.2442    5.1304    0.0000 H   0  0  0  0  0  0  0  0  0  0  0  0
   13.3631    6.7320    0.0000 H   0  0  0  0  0  0  0  0  0  0  0  0
    4.7222   17.6066    0.0000 H   0  0  0  0  0  0  0  0  0  0  0  0
    4.3237   16.9164    0.0000 H   0  0  0  0  0  0  0  0  0  0  0  0
    7.2033   16.3340    0.0000 H   0  0  0  0  0  0  0  0  0  0  0  0
    6.3372   15.2140    0.0000 H   0  0  0  0  0  0  0  0  0  0  0  0
    4.3237   18.1317    0.0000 H   0  0  0  0  0  0  0  0  0  0  0  0
    4.7222   17.4414    0.0000 H   0  0  0  0  0  0  0  0  0  0  0  0
   13.2811    2.5923    0.0000 H   0  0  0  0  0  0  0  0  0  0  0  0
   11.4125    4.1899    0.0000 H   0  0  0  0  0  0  0  0  0  0  0  0
   11.5197    6.6294    0.0000 H   0  0  0  0  0  0  0  0  0  0  0  0
   11.0345    5.9970    0.0000 H   0  0  0  0  0  0  0  0  0  0  0  0
    4.3237   16.1317    0.0000 H   0  0  0  0  0  0  0  0  0  0  0  0
    4.7222   15.4414    0.0000 H   0  0  0  0  0  0  0  0  0  0  0  0
    4.1982   18.5990    0.0000 H   0  0  0  0  0  0  0  0  0  0  0  0
    7.4024   18.5990    0.0000 H   0  0  0  0  0  0  0  0  0  0  0  0
    6.1988   19.9990    0.0000 H   0  0  0  0  0  0  0  0  0  0  0  0
    5.4018   19.9990    0.0000 H   0  0  0  0  0  0  0  0  0  0  0  0
    8.0693   15.2140    0.0000 H   0  0  0  0  0  0  0  0  0  0  0  0
   15.2433    2.4884    0.0000 H   0  0  0  0  0  0  0  0  0  0  0  0
   16.1126    2.6028    0.0000 H   0  0  0  0  0  0  0  0  0  0  0  0
   15.9981    3.4722    0.0000 H   0  0  0  0  0  0  0  0  0  0  0  0
   10.1424    4.2311    0.0000 H   0  0  0  0  0  0  0  0  0  0  0  0
   10.9327    4.1270    0.0000 H   0  0  0  0  0  0  0  0  0  0  0  0
   15.1576    1.4197    0.0000 H   0  0  0  0  0  0  0  0  0  0  0  0
   14.8526    2.1561    0.0000 H   0  0  0  0  0  0  0  0  0  0  0  0
   13.2274    8.4672    0.0000 H   0  0  0  0  0  0  0  0  0  0  0  0
   13.5050   11.7804    0.0000 H   0  0  0  0  0  0  0  0  0  0  0  0
    5.1803   14.5240    0.0000 H   0  0  0  0  0  0  0  0  0  0  0  0
    5.8003   13.9040    0.0000 H   0  0  0  0  0  0  0  0  0  0  0  0
    6.4203   14.5240    0.0000 H   0  0  0  0  0  0  0  0  0  0  0  0
   12.6118    2.4050    0.0000 H   0  0  0  0  0  0  0  0  0  0  0  0
   12.2763    1.5950    0.0000 H   0  0  0  0  0  0  0  0  0  0  0  0
   13.0863    1.2594    0.0000 H   0  0  0  0  0  0  0  0  0  0  0  0
    3.2022   20.1740    0.0000 H   0  0  0  0  0  0  0  0  0  0  0  0
    1.6779   23.1288    0.0000 H   0  0  0  0  0  0  0  0  0  0  0  0
    7.7444   18.9414    0.0000 H   0  0  0  0  0  0  0  0  0  0  0  0
    8.1429   19.6317    0.0000 H   0  0  0  0  0  0  0  0  0  0  0  0
   13.9339   11.4558    0.0000 H   0  0  0  0  0  0  0  0  0  0  0  0
    0.8647   21.7359    0.0000 H   0  0  0  0  0  0  0  0  0  0  0  0
    6.9124   14.5240    0.0000 H   0  0  0  0  0  0  0  0  0  0  0  0
    7.5324   13.9040    0.0000 H   0  0  0  0  0  0  0  0  0  0  0  0
    8.1524   14.5240    0.0000 H   0  0  0  0  0  0  0  0  0  0  0  0
    8.7084   15.4871    0.0000 H   0  0  0  0  0  0  0  0  0  0  0  0
    8.9353   16.3340    0.0000 H   0  0  0  0  0  0  0  0  0  0  0  0
    8.0884   16.5610    0.0000 H   0  0  0  0  0  0  0  0  0  0  0  0
   14.1633    8.5251    0.0000 H   0  0  0  0  0  0  0  0  0  0  0  0
   11.3400   11.8963    0.0000 H   0  0  0  0  0  0  0  0  0  0  0  0
   10.8984   11.2089    0.0000 H   0  0  0  0  0  0  0  0  0  0  0  0
    2.3154   19.8694    0.0000 H   0  0  0  0  0  0  0  0  0  0  0  0
    9.2692    4.9487    0.0000 H   0  0  0  0  0  0  0  0  0  0  0  0
   13.8211    0.6956    0.0000 H   0  0  0  0  0  0  0  0  0  0  0  0
   14.3548    0.0000    0.0000 H   0  0  0  0  0  0  0  0  0  0  0  0
   15.0505    0.5338    0.0000 H   0  0  0  0  0  0  0  0  0  0  0  0
    4.3047   23.5983    0.0000 H   0  0  0  0  0  0  0  0  0  0  0  0
    3.6337   24.0644    0.0000 H   0  0  0  0  0  0  0  0  0  0  0  0
    6.9954   20.8340    0.0000 H   0  0  0  0  0  0  0  0  0  0  0  0
   12.9330   11.5943    0.0000 H   0  0  0  0  0  0  0  0  0  0  0  0
    2.2776   23.1758    0.0000 H   0  0  0  0  0  0  0  0  0  0  0  0
   11.2293    8.9766    0.0000 H   0  0  0  0  0  0  0  0  0  0  0  0
    5.2444   21.4871    0.0000 H   0  0  0  0  0  0  0  0  0  0  0  0
    8.3262    7.1331    0.0000 H   0  0  0  0  0  0  0  0  0  0  0  0
   15.4807    9.1733    0.0000 H   0  0  0  0  0  0  0  0  0  0  0  0
   16.1784    9.7044    0.0000 H   0  0  0  0  0  0  0  0  0  0  0  0
   15.6473   10.4021    0.0000 H   0  0  0  0  0  0  0  0  0  0  0  0
    0.2261   21.0356    0.0000 H   0  0  0  0  0  0  0  0  0  0  0  0
    0.0024   20.1878    0.0000 H   0  0  0  0  0  0  0  0  0  0  0  0
    0.8502   19.9641    0.0000 H   0  0  0  0  0  0  0  0  0  0  0  0
    8.9353   21.7140    0.0000 H   0  0  0  0  0  0  0  0  0  0  0  0
   15.3952   11.6016    0.0000 H   0  0  0  0  0  0  0  0  0  0  0  0
    8.6708    8.4651    0.0000 H   0  0  0  0  0  0  0  0  0  0  0  0
    0.0000   22.2402    0.0000 H   0  0  0  0  0  0  0  0  0  0  0  0
    8.0693   22.8340    0.0000 H   0  0  0  0  0  0  0  0  0  0  0  0
    9.5504    9.8749    0.0000 H   0  0  0  0  0  0  0  0  0  0  0  0
   10.8517    6.2132    0.0000 H   0  0  0  0  0  0  0  0  0  0  0  0
   11.0786    7.0602    0.0000 H   0  0  0  0  0  0  0  0  0  0  0  0
   10.2317    7.2871    0.0000 H   0  0  0  0  0  0  0  0  0  0  0  0
    5.8003   23.1440    0.0000 H   0  0  0  0  0  0  0  0  0  0  0  0
   10.0370    8.0817    0.0000 H   0  0  0  0  0  0  0  0  0  0  0  0
    8.9544   19.9871    0.0000 H   0  0  0  0  0  0  0  0  0  0  0  0
    9.8013   20.2140    0.0000 H   0  0  0  0  0  0  0  0  0  0  0  0
    9.5744   21.0610    0.0000 H   0  0  0  0  0  0  0  0  0  0  0  0
    6.6663   21.4040    0.0000 H   0  0  0  0  0  0  0  0  0  0  0  0
    7.1502    6.2389    0.0000 H   0  0  0  0  0  0  0  0  0  0  0  0
    8.0651    8.8058    0.0000 H   0  0  0  0  0  0  0  0  0  0  0  0
    7.2551    8.4703    0.0000 H   0  0  0  0  0  0  0  0  0  0  0  0
    7.5906    7.6602    0.0000 H   0  0  0  0  0  0  0  0  0  0  0  0
    9.5935   21.7140    0.0000 H   0  0  0  0  0  0  0  0  0  0  0  0
    8.1524   23.5240    0.0000 H   0  0  0  0  0  0  0  0  0  0  0  0
    7.5324   24.1440    0.0000 H   0  0  0  0  0  0  0  0  0  0  0  0
    6.9124   23.5240    0.0000 H   0  0  0  0  0  0  0  0  0  0  0  0
    5.8857    5.8840    0.0000 H   0  0  0  0  0  0  0  0  0  0  0  0
    6.6828    5.8840    0.0000 H   0  0  0  0  0  0  0  0  0  0  0  0
    5.4182    6.2389    0.0000 H   0  0  0  0  0  0  0  0  0  0  0  0
    9.5198   21.1317    0.0000 H   0  0  0  0  0  0  0  0  0  0  0  0
    9.9184   20.4414    0.0000 H   0  0  0  0  0  0  0  0  0  0  0  0
    5.4182    8.4789    0.0000 H   0  0  0  0  0  0  0  0  0  0  0  0
    6.8212    8.6689    0.0000 H   0  0  0  0  0  0  0  0  0  0  0  0
   10.4595   20.2140    0.0000 H   0  0  0  0  0  0  0  0  0  0  0  0
   11.8625   20.4040    0.0000 H   0  0  0  0  0  0  0  0  0  0  0  0
   11.8625   22.6440    0.0000 H   0  0  0  0  0  0  0  0  0  0  0  0
    6.9042    9.3589    0.0000 H   0  0  0  0  0  0  0  0  0  0  0  0
    6.2842    9.9789    0.0000 H   0  0  0  0  0  0  0  0  0  0  0  0
    5.6642    9.3589    0.0000 H   0  0  0  0  0  0  0  0  0  0  0  0
   13.0385   21.9871    0.0000 H   0  0  0  0  0  0  0  0  0  0  0  0
   13.2654   22.8340    0.0000 H   0  0  0  0  0  0  0  0  0  0  0  0
   12.4185   23.0610    0.0000 H   0  0  0  0  0  0  0  0  0  0  0  0
    3.6861    8.4789    0.0000 H   0  0  0  0  0  0  0  0  0  0  0  0
   13.0576   21.3340    0.0000 H   0  0  0  0  0  0  0  0  0  0  0  0
    3.8982    6.2763    0.0000 H   0  0  0  0  0  0  0  0  0  0  0  0
    4.2967    6.9666    0.0000 H   0  0  0  0  0  0  0  0  0  0  0  0
   13.3825   22.6066    0.0000 H   0  0  0  0  0  0  0  0  0  0  0  0
   12.9839   21.9164    0.0000 H   0  0  0  0  0  0  0  0  0  0  0  0
    3.3570    6.0489    0.0000 H   0  0  0  0  0  0  0  0  0  0  0  0
   14.9975   22.8340    0.0000 H   0  0  0  0  0  0  0  0  0  0  0  0
    1.9541    6.2389    0.0000 H   0  0  0  0  0  0  0  0  0  0  0  0
    1.9541    8.4789    0.0000 H   0  0  0  0  0  0  0  0  0  0  0  0
   15.8635   21.7140    0.0000 H   0  0  0  0  0  0  0  0  0  0  0  0
   15.3266   20.4040    0.0000 H   0  0  0  0  0  0  0  0  0  0  0  0
    3.9322    5.3589    0.0000 H   0  0  0  0  0  0  0  0  0  0  0  0
    4.5522    4.7389    0.0000 H   0  0  0  0  0  0  0  0  0  0  0  0
    5.1722    5.3589    0.0000 H   0  0  0  0  0  0  0  0  0  0  0  0
   11.5525   18.4871    0.0000 H   0  0  0  0  0  0  0  0  0  0  0  0
   12.3994   18.7140    0.0000 H   0  0  0  0  0  0  0  0  0  0  0  0
   12.1725   19.5610    0.0000 H   0  0  0  0  0  0  0  0  0  0  0  0
    1.3981    8.8958    0.0000 H   0  0  0  0  0  0  0  0  0  0  0  0
    0.5511    8.6689    0.0000 H   0  0  0  0  0  0  0  0  0  0  0  0
    0.7781    7.8220    0.0000 H   0  0  0  0  0  0  0  0  0  0  0  0
   15.8826   19.9871    0.0000 H   0  0  0  0  0  0  0  0  0  0  0  0
   16.7295   20.2140    0.0000 H   0  0  0  0  0  0  0  0  0  0  0  0
   16.5026   21.0610    0.0000 H   0  0  0  0  0  0  0  0  0  0  0  0
    0.5511    6.6689    0.0000 H   0  0  0  0  0  0  0  0  0  0  0  0
   16.7295   22.2140    0.0000 H   0  0  0  0  0  0  0  0  0  0  0  0
    3.3761    4.3220    0.0000 H   0  0  0  0  0  0  0  0  0  0  0  0
    4.2231    4.5489    0.0000 H   0  0  0  0  0  0  0  0  0  0  0  0
    3.9961    5.3958    0.0000 H   0  0  0  0  0  0  0  0  0  0  0  0
   15.6366   23.4871    0.0000 H   0  0  0  0  0  0  0  0  0  0  0  0
   15.8635   24.3340    0.0000 H   0  0  0  0  0  0  0  0  0  0  0  0
   15.0166   24.5610    0.0000 H   0  0  0  0  0  0  0  0  0  0  0  0
 29  1  1  1  0  0  0
  1 30  1  0  0  0  0
  2 29  1  0  0  0  0
  2 42  1  0  0  0  0
 33  3  1  6  0  0  0
  3 38  1  0  0  0  0
  4 33  1  0  0  0  0
  4 46  1  0  0  0  0
  5 36  1  0  0  0  0
  5 61  1  0  0  0  0
  6 45  1  0  0  0  0
  6 67  1  0  0  0  0
  7 55  1  0  0  0  0
  7 71  1  0  0  0  0
  8 59  1  0  0  0  0
  8 76  1  0  0  0  0
 50  9  1  1  0  0  0
  9188  1  0  0  0  0
 54 10  1  6  0  0  0
 10189  1  0  0  0  0
 62 11  1  6  0  0  0
 11200  1  0  0  0  0
 64 12  1  1  0  0  0
 12202  1  0  0  0  0
 13 61  2  0  0  0  0
 14 67  2  0  0  0  0
 81 15  1  1  0  0  0
 94 15  1  1  0  0  0
 85 16  1  6  0  0  0
 96 16  1  6  0  0  0
 17 94  1  0  0  0  0
 17102  1  0  0  0  0
 18 96  1  0  0  0  0
 18105  1  0  0  0  0
101 19  1  1  0  0  0
108 19  1  1  0  0  0
104 20  1  6  0  0  0
109 20  1  1  0  0  0
 99 21  1  6  0  0  0
 21118  1  0  0  0  0
103 22  1  1  0  0  0
 22119  1  0  0  0  0
 23108  1  0  0  0  0
 23115  1  0  0  0  0
 24109  1  0  0  0  0
 24117  1  0  0  0  0
112 25  1  6  0  0  0
 25122  1  0  0  0  0
113 26  1  6  0  0  0
 26123  1  0  0  0  0
114 27  1  1  0  0  0
 27262  1  0  0  0  0
116 28  1  1  0  0  0
 28263  1  0  0  0  0
 29 32  1  0  0  0  0
 29 34  1  0  0  0  0
 30 31  1  0  0  0  0
 30 41  1  0  0  0  0
 30124  1  6  0  0  0
 31 35  1  0  0  0  0
 31 49  1  6  0  0  0
 31125  1  0  0  0  0
 32 35  1  0  0  0  0
 32126  1  0  0  0  0
 32127  1  0  0  0  0
 33 37  1  0  0  0  0
 33 40  1  0  0  0  0
 34 36  1  0  0  0  0
 34128  1  0  0  0  0
 34129  1  0  0  0  0
 35130  1  0  0  0  0
 35131  1  0  0  0  0
 36 43  1  0  0  0  0
 36132  1  1  0  0  0
 37 44  1  0  0  0  0
 37133  1  0  0  0  0
 37134  1  0  0  0  0
 38 39  1  0  0  0  0
 38 48  1  6  0  0  0
 38135  1  0  0  0  0
 39 44  1  0  0  0  0
 39 56  1  1  0  0  0
 39136  1  0  0  0  0
 40 45  1  0  0  0  0
 40137  1  0  0  0  0
 40138  1  0  0  0  0
 41 52  1  0  0  0  0
 41 57  1  6  0  0  0
 41139  1  0  0  0  0
 42 43  1  0  0  0  0
 42 51  1  0  0  0  0
 42140  1  1  0  0  0
 43141  1  0  0  0  0
 43142  1  0  0  0  0
 44143  1  0  0  0  0
 44144  1  0  0  0  0
 45 47  1  0  0  0  0
 45145  1  6  0  0  0
 46 47  1  0  0  0  0
 46 60  1  0  0  0  0
 46146  1  6  0  0  0
 47147  1  0  0  0  0
 47148  1  0  0  0  0
 48 65  1  0  0  0  0
 48 66  1  0  0  0  0
 48149  1  0  0  0  0
 49150  1  0  0  0  0
 49151  1  0  0  0  0
 49152  1  0  0  0  0
 50 53  1  0  0  0  0
 50 55  1  0  0  0  0
 50 63  1  0  0  0  0
 51 73  1  0  0  0  0
 51153  1  0  0  0  0
 51154  1  0  0  0  0
 52 74  1  0  0  0  0
 52155  1  0  0  0  0
 52156  1  0  0  0  0
 53 61  1  0  0  0  0
 53 69  1  0  0  0  0
 53157  1  6  0  0  0
 54 58  1  0  0  0  0
 54 59  1  0  0  0  0
 54 68  1  0  0  0  0
 55 62  1  0  0  0  0
 55158  1  1  0  0  0
 56159  1  0  0  0  0
 56160  1  0  0  0  0
 56161  1  0  0  0  0
 57162  1  0  0  0  0
 57163  1  0  0  0  0
 57164  1  0  0  0  0
 58 67  1  0  0  0  0
 58 72  1  0  0  0  0
 58165  1  1  0  0  0
 59 64  1  0  0  0  0
 59166  1  6  0  0  0
 60 77  1  0  0  0  0
 60167  1  0  0  0  0
 60168  1  0  0  0  0
 62 70  1  0  0  0  0
 62169  1  0  0  0  0
 63 71  1  0  0  0  0
 63 79  2  0  0  0  0
 64 75  1  0  0  0  0
 64170  1  0  0  0  0
 65171  1  0  0  0  0
 65172  1  0  0  0  0
 65173  1  0  0  0  0
 66174  1  0  0  0  0
 66175  1  0  0  0  0
 66176  1  0  0  0  0
 68 76  1  0  0  0  0
 68 80  2  0  0  0  0
 69 70  2  0  0  0  0
 69177  1  0  0  0  0
 70 83  1  0  0  0  0
 71178  1  0  0  0  0
 71179  1  0  0  0  0
 72 75  2  0  0  0  0
 72180  1  0  0  0  0
 73 78  2  0  0  0  0
 73181  1  0  0  0  0
 74182  1  0  0  0  0
 74183  1  0  0  0  0
 74184  1  0  0  0  0
 75 84  1  0  0  0  0
 76185  1  0  0  0  0
 76186  1  0  0  0  0
 77 82  2  0  0  0  0
 77187  1  0  0  0  0
 78 81  1  0  0  0  0
 78 89  1  0  0  0  0
 79 88  1  0  0  0  0
 79190  1  0  0  0  0
 80 90  1  0  0  0  0
 80191  1  0  0  0  0
 81 86  1  0  0  0  0
 81192  1  0  0  0  0
 82 85  1  0  0  0  0
 82 92  1  0  0  0  0
 83193  1  0  0  0  0
 83194  1  0  0  0  0
 83195  1  0  0  0  0
 84196  1  0  0  0  0
 84197  1  0  0  0  0
 84198  1  0  0  0  0
 85 87  1  0  0  0  0
 85199  1  0  0  0  0
 86 91  1  0  0  0  0
 86 95  1  1  0  0  0
 86201  1  0  0  0  0
 87 93  1  0  0  0  0
 87 97  1  6  0  0  0
 87203  1  0  0  0  0
 88 91  2  0  0  0  0
 88204  1  0  0  0  0
 89205  1  0  0  0  0
 89206  1  0  0  0  0
 89207  1  0  0  0  0
 90 93  2  0  0  0  0
 90208  1  0  0  0  0
 91209  1  0  0  0  0
 92210  1  0  0  0  0
 92211  1  0  0  0  0
 92212  1  0  0  0  0
 93213  1  0  0  0  0
 94 98  1  0  0  0  0
 94214  1  0  0  0  0
 95215  1  0  0  0  0
 95216  1  0  0  0  0
 95217  1  0  0  0  0
 96100  1  0  0  0  0
 96218  1  0  0  0  0
 97219  1  0  0  0  0
 97220  1  0  0  0  0
 97221  1  0  0  0  0
 98 99  1  0  0  0  0
 98222  1  0  0  0  0
 98223  1  0  0  0  0
 99101  1  0  0  0  0
 99224  1  0  0  0  0
100103  1  0  0  0  0
100225  1  0  0  0  0
100226  1  0  0  0  0
101102  1  0  0  0  0
101227  1  0  0  0  0
102106  1  6  0  0  0
102228  1  0  0  0  0
103104  1  0  0  0  0
103229  1  0  0  0  0
104105  1  0  0  0  0
104230  1  0  0  0  0
105107  1  1  0  0  0
105231  1  0  0  0  0
106232  1  0  0  0  0
106233  1  0  0  0  0
106234  1  0  0  0  0
107235  1  0  0  0  0
107236  1  0  0  0  0
107237  1  0  0  0  0
108110  1  0  0  0  0
108238  1  0  0  0  0
109111  1  0  0  0  0
109239  1  0  0  0  0
110112  1  0  0  0  0
110240  1  0  0  0  0
110241  1  0  0  0  0
111113  1  0  0  0  0
111242  1  0  0  0  0
111243  1  0  0  0  0
112114  1  0  0  0  0
112244  1  0  0  0  0
113116  1  0  0  0  0
113245  1  0  0  0  0
114115  1  0  0  0  0
114246  1  0  0  0  0
115120  1  6  0  0  0
115247  1  0  0  0  0
116117  1  0  0  0  0
116248  1  0  0  0  0
117121  1  6  0  0  0
117249  1  0  0  0  0
118250  1  0  0  0  0
118251  1  0  0  0  0
118252  1  0  0  0  0
119253  1  0  0  0  0
119254  1  0  0  0  0
119255  1  0  0  0  0
120256  1  0  0  0  0
120257  1  0  0  0  0
120258  1  0  0  0  0
121259  1  0  0  0  0
121260  1  0  0  0  0
121261  1  0  0  0  0
122264  1  0  0  0  0
122265  1  0  0  0  0
122266  1  0  0  0  0
123267  1  0  0  0  0
123268  1  0  0  0  0
123269  1  0  0  0  0
M  END
> <PUBCHEM_COMPOUND_CID>
9812710

> <PUBCHEM_COMPOUND_CANONICALIZED>
1

> <PUBCHEM_CACTVS_COMPLEXITY>
3340

> <PUBCHEM_CACTVS_HBOND_ACCEPTOR>
28

> <PUBCHEM_CACTVS_HBOND_DONOR>
6

> <PUBCHEM_CACTVS_ROTATABLE_BOND>
15

> <PUBCHEM_CACTVS_SUBSKEYS>
AAADcfB8PgAAAAAAAAAAAAAAAAAAASJAAAAkSJEiQAAAAEAAAAAAGgAACAAADVSwgAMCCAAABgCIAiDSCAAAAAAgAAAICAEAAAgZFBYAIQAiUAAF4AAPsAPK7OzOgAAAAAAAAAAAAAAAAAAAAAAAAAAAAA==

> <PUBCHEM_IUPAC_OPENEYE_NAME>
(1R,4S,5'S,6R,6'R,8R,10E,12S,13S,14E,16E,20R,21R,24S)-21,24-dihydroxy-12-[(2R,4S,5S,6S)-5-[(2S,4S,5S,6S)-5-hydroxy-4-methoxy-6-methyl-tetrahydropyran-2-yl]oxy-4-methoxy-6-methyl-tetrahydropyran-2-yl]oxy-6'-isopropyl-5',11,13,22-tetramethyl-spiro[3,7,19-trioxatetracyclo[15.6.1.14,8.020,24]pentacosa-10,14,16,22-tetraene-6,2'-tetrahydropyran]-2-one;(1R,4S,5'S,6R,6'R,8R,10E,12S,13S,14E,16E,20R,21R,24S)-21,24-dihydroxy-12-[(2R,4S,5S,6S)-5-[(2S,4S,5S,6S)-5-hydroxy-4-methoxy-6-methyl-tetrahydropyran-2-yl]oxy-4-methoxy-6-methyl-tetrahydropyran-2-yl]oxy-5',11,13,22-tetramethyl-6'-[(1S)-1-methylpropyl]spiro[3,7,19-trioxatetracyclo[15.6.1.14,8.020,24]pentacosa-10,14,16,22-tetraene-6,2'-tetrahydropyran]-2-one

> <PUBCHEM_IUPAC_CAS_NAME>
(1R,4S,5'S,6R,6'R,8R,10E,12S,13S,14E,16E,20R,21R,24S)-6'-[(2S)-butan-2-yl]-21,24-dihydroxy-12-[[(2R,4S,5S,6S)-5-[[(2S,4S,5S,6S)-5-hydroxy-4-methoxy-6-methyl-2-oxanyl]oxy]-4-methoxy-6-methyl-2-oxanyl]oxy]-5',11,13,22-tetramethyl-2-spiro[3,7,19-trioxatetracyclo[15.6.1.14,8.020,24]pentacosa-10,14,16,22-tetraene-6,2'-oxane]one;(1R,4S,5'S,6R,6'R,8R,10E,12S,13S,14E,16E,20R,21R,24S)-21,24-dihydroxy-12-[[(2R,4S,5S,6S)-5-[[(2S,4S,5S,6S)-5-hydroxy-4-methoxy-6-methyl-2-oxanyl]oxy]-4-methoxy-6-methyl-2-oxanyl]oxy]-5',11,13,22-tetramethyl-6'-propan-2-yl-2-spiro[3,7,19-trioxatetracyclo[15.6.1.14,8.020,24]pentacosa-10,14,16,22-tetraene-6,2'-oxane]one

> <PUBCHEM_IUPAC_NAME_MARKUP>
(1<I>R</I>,4<I>S</I>,5&apos;<I>S</I>,6<I>R</I>,6&apos;<I>R</I>,8<I>R</I>,10<I>E</I>,12<I>S</I>,13<I>S</I>,14<I>E</I>,16<I>E</I>,20<I>R</I>,21<I>R</I>,24<I>S</I>)-6&apos;-[(2<I>S</I>)-butan-2-yl]-21,24-dihydroxy-12-[(2<I>R</I>,4<I>S</I>,5<I>S</I>,6<I>S</I>)-5-[(2<I>S</I>,4<I>S</I>,5<I>S</I>,6<I>S</I>)-5-hydroxy-4-methoxy-6-methyloxan-2-yl]oxy-4-methoxy-6-methyloxan-2-yl]oxy-5&apos;,11,13,22-tetramethylspiro[3,7,19-trioxatetracyclo[15.6.1.1<SUP>4,8</SUP>.0<SUP>20,24</SUP>]pentacosa-10,14,16,22-tetraene-6,2&apos;-oxane]-2-one;(1<I>R</I>,4<I>S</I>,5&apos;<I>S</I>,6<I>R</I>,6&apos;<I>R</I>,8<I>R</I>,10<I>E</I>,12<I>S</I>,13<I>S</I>,14<I>E</I>,16<I>E</I>,20<I>R</I>,21<I>R</I>,24<I>S</I>)-21,24-dihydroxy-12-[(2<I>R</I>,4<I>S</I>,5<I>S</I>,6<I>S</I>)-5-[(2<I>S</I>,4<I>S</I>,5<I>S</I>,6<I>S</I>)-5-hydroxy-4-methoxy-6-methyloxan-2-yl]oxy-4-methoxy-6-methyloxan-2-yl]oxy-5&apos;,11,13,22-tetramethyl-6&apos;-propan-2-ylspiro[3,7,19-trioxatetracyclo[15.6.1.1<SUP>4,8</SUP>.0<SUP>20,24</SUP>]pentacosa-10,14,16,22-tetraene-6,2&apos;-oxane]-2-one

> <PUBCHEM_IUPAC_NAME>
(1R,4S,5'S,6R,6'R,8R,10E,12S,13S,14E,16E,20R,21R,24S)-6'-[(2S)-butan-2-yl]-21,24-dihydroxy-12-[(2R,4S,5S,6S)-5-[(2S,4S,5S,6S)-5-hydroxy-4-methoxy-6-methyloxan-2-yl]oxy-4-methoxy-6-methyloxan-2-yl]oxy-5',11,13,22-tetramethylspiro[3,7,19-trioxatetracyclo[15.6.1.14,8.020,24]pentacosa-10,14,16,22-tetraene-6,2'-oxane]-2-one;(1R,4S,5'S,6R,6'R,8R,10E,12S,13S,14E,16E,20R,21R,24S)-21,24-dihydroxy-12-[(2R,4S,5S,6S)-5-[(2S,4S,5S,6S)-5-hydroxy-4-methoxy-6-methyloxan-2-yl]oxy-4-methoxy-6-methyloxan-2-yl]oxy-5',11,13,22-tetramethyl-6'-propan-2-ylspiro[3,7,19-trioxatetracyclo[15.6.1.14,8.020,24]pentacosa-10,14,16,22-tetraene-6,2'-oxane]-2-one

> <PUBCHEM_IUPAC_SYSTEMATIC_NAME>
(1R,4S,5'S,6R,6'R,8R,10E,12S,13S,14E,16E,20R,21R,24S)-6'-[(2S)-butan-2-yl]-12-[(2R,4S,5S,6S)-4-methoxy-5-[(2S,4S,5S,6S)-4-methoxy-6-methyl-5-oxidanyl-oxan-2-yl]oxy-6-methyl-oxan-2-yl]oxy-5',11,13,22-tetramethyl-21,24-bis(oxidanyl)spiro[3,7,19-trioxatetracyclo[15.6.1.14,8.020,24]pentacosa-10,14,16,22-tetraene-6,2'-oxane]-2-one;(1R,4S,5'S,6R,6'R,8R,10E,12S,13S,14E,16E,20R,21R,24S)-12-[(2R,4S,5S,6S)-4-methoxy-5-[(2S,4S,5S,6S)-4-methoxy-6-methyl-5-oxidanyl-oxan-2-yl]oxy-6-methyl-oxan-2-yl]oxy-5',11,13,22-tetramethyl-21,24-bis(oxidanyl)-6'-propan-2-yl-spiro[3,7,19-trioxatetracyclo[15.6.1.14,8.020,24]pentacosa-10,14,16,22-tetraene-6,2'-oxane]-2-one

> <PUBCHEM_IUPAC_TRADITIONAL_NAME>
(1R,4S,5'S,6R,6'R,8R,10E,12S,13S,14E,16E,20R,21R,24S)-21,24-dihydroxy-12-[(2R,4S,5S,6S)-5-[(2S,4S,5S,6S)-5-hydroxy-4-methoxy-6-methyl-tetrahydropyran-2-yl]oxy-4-methoxy-6-methyl-tetrahydropyran-2-yl]oxy-6'-isopropyl-5',11,13,22-tetramethyl-spiro[3,7,19-trioxatetracyclo[15.6.1.14,8.020,24]pentacosa-10,14,16,22-tetraene-6,2'-tetrahydropyran]-2-one;(1R,4S,5'S,6R,6'R,8R,10E,12S,13S,14E,16E,20R,21R,24S)-21,24-dihydroxy-12-[(2R,4S,5S,6S)-5-[(2S,4S,5S,6S)-5-hydroxy-4-methoxy-6-methyl-tetrahydropyran-2-yl]oxy-4-methoxy-6-methyl-tetrahydropyran-2-yl]oxy-5',11,13,22-tetramethyl-6'-[(1S)-1-methylpropyl]spiro[3,7,19-trioxatetracyclo[15.6.1.14,8.020,24]pentacosa-10,14,16,22-tetraene-6,2'-tetrahydropyran]-2-one

> <PUBCHEM_IUPAC_INCHI>
InChI=1S/C48H74O14.C47H72O14/c1-11-25(2)43-28(5)17-18-47(62-43)23-34-20-33(61-47)16-15-27(4)42(26(3)13-12-14-32-24-55-45-40(49)29(6)19-35(46(51)58-34)48(32,45)52)59-39-22-37(54-10)44(31(8)57-39)60-38-21-36(53-9)41(50)30(7)56-38;1-24(2)41-27(5)16-17-46(61-41)22-33-19-32(60-46)15-14-26(4)42(25(3)12-11-13-31-23-54-44-39(48)28(6)18-34(45(50)57-33)47(31,44)51)58-38-21-36(53-10)43(30(8)56-38)59-37-20-35(52-9)40(49)29(7)55-37/h12-15,19,25-26,28,30-31,33-45,49-50,52H,11,16-18,20-24H2,1-10H3;11-14,18,24-25,27,29-30,32-44,48-49,51H,15-17,19-23H2,1-10H3/b13-12+,27-15+,32-14+;12-11+,26-14+,31-13+/t25-,26-,28-,30-,31-,33+,34-,35-,36-,37-,38-,39-,40+,41-,42-,43+,44-,45+,47+,48+;25-,27-,29-,30-,32+,33-,34-,35-,36-,37-,38-,39+,40-,41+,42-,43-,44+,46+,47+/m00/s1

> <PUBCHEM_IUPAC_INCHIKEY>
SPBDXSGPUHCETR-JFUDTMANSA-N

> <PUBCHEM_EXACT_MASS>
1736.003419

> <PUBCHEM_MOLECULAR_FORMULA>
C95H146O28

> <PUBCHEM_MOLECULAR_WEIGHT>
1736.2

> <PUBCHEM_OPENEYE_CAN_SMILES>
CCC(C)C1C(CCC2(O1)CC3CC(O2)CC=C(C(C(C=CC=C4COC5C4(C(C=C(C5O)C)C(=O)O3)O)C)OC6CC(C(C(O6)C)OC7CC(C(C(O7)C)O)OC)OC)C)C.CC1CCC2(CC3CC(O2)CC=C(C(C(C=CC=C4COC5C4(C(C=C(C5O)C)C(=O)O3)O)C)OC6CC(C(C(O6)C)OC7CC(C(C(O7)C)O)OC)OC)C)OC1C(C)C

> <PUBCHEM_OPENEYE_ISO_SMILES>
CC[C@H](C)[C@@H]1[C@H](CC[C@@]2(O1)C[C@@H]3C[C@H](O2)C/C=C(/[C@H]([C@H](/C=C/C=C/4\CO[C@H]5[C@@]4([C@@H](C=C([C@H]5O)C)C(=O)O3)O)C)O[C@H]6C[C@@H]([C@H]([C@@H](O6)C)O[C@H]7C[C@@H]([C@H]([C@@H](O7)C)O)OC)OC)\C)C.C[C@H]1CC[C@]2(C[C@@H]3C[C@H](O2)C/C=C(/[C@H]([C@H](/C=C/C=C/4\CO[C@H]5[C@@]4([C@@H](C=C([C@H]5O)C)C(=O)O3)O)C)O[C@H]6C[C@@H]([C@H]([C@@H](O6)C)O[C@H]7C[C@@H]([C@H]([C@@H](O7)C)O)OC)OC)\C)O[C@@H]1C(C)C

> <PUBCHEM_CACTVS_TPSA>
340

> <PUBCHEM_MONOISOTOPIC_WEIGHT>
1735.000064

> <PUBCHEM_TOTAL_CHARGE>
0

> <PUBCHEM_HEAVY_ATOM_COUNT>
123

> <PUBCHEM_ATOM_DEF_STEREO_COUNT>
39

> <PUBCHEM_ATOM_UDEF_STEREO_COUNT>
0

> <PUBCHEM_BOND_DEF_STEREO_COUNT>
6

> <PUBCHEM_BOND_UDEF_STEREO_COUNT>
0

> <PUBCHEM_ISOTOPIC_ATOM_COUNT>
0

> <PUBCHEM_COMPONENT_COUNT>
2

> <PUBCHEM_CACTVS_TAUTO_COUNT>
-1

> <PUBCHEM_COORDINATE_TYPE>
1
5
255

> <PUBCHEM_BONDANNOTATIONS>
29  1  5
54  10  6
102  106  6
105  107  5
62  11  6
115  120  6
117  121  6
64  12  5
81  15  5
94  15  5
85  16  6
96  16  6
101  19  5
108  19  5
104  20  6
109  20  5
99  21  6
103  22  5
112  25  6
113  26  6
114  27  5
116  28  5
33  3  6
30  124  6
31  49  6
36  132  5
38  48  6
39  56  5
41  57  6
42  140  5
45  145  6
46  146  6
53  157  6
55  158  5
58  165  5
59  166  6
86  95  5
87  97  6
50  9  5

$$$$
