9913795
  -OEChem-05242006132D

 69 71  0     1  0  0  0  0  0999 V2000
    6.6124    0.0000    0.0000 Na  0  4  0  0  0  0  0  0  0  0  0  0
    6.0319    8.4868    0.0000 O   0  0  0  0  0  0  0  0  0  0  0  0
    2.7950    7.7304    0.0000 O   0  0  0  0  0  0  0  0  0  0  0  0
    7.0465    9.1163    0.0000 O   0  0  0  0  0  0  0  0  0  0  0  0
    8.8722    8.2996    0.0000 O   0  0  0  0  0  0  0  0  0  0  0  0
    0.0000    4.1781    0.0000 O   0  0  0  0  0  0  0  0  0  0  0  0
    9.8879    6.8966    0.0000 O   0  0  0  0  0  0  0  0  0  0  0  0
   13.2308    8.2474    0.0000 O   0  0  0  0  0  0  0  0  0  0  0  0
   12.2151    9.6504    0.0000 O   0  0  0  0  0  0  0  0  0  0  0  0
    5.3931    7.2304    0.0000 C   0  0  1  0  0  0  0  0  0  0  0  0
    5.3931    6.2304    0.0000 C   0  0  2  0  0  0  0  0  0  0  0  0
    4.5271    5.7304    0.0000 C   0  0  1  0  0  0  0  0  0  0  0  0
    3.6610    6.2304    0.0000 C   0  0  2  0  0  0  0  0  0  0  0  0
    6.3393    7.5352    0.0000 C   0  0  1  0  0  0  0  0  0  0  0  0
    4.5271    7.7304    0.0000 C   0  0  0  0  0  0  0  0  0  0  0  0
    3.6610    7.2304    0.0000 C   0  0  2  0  0  0  0  0  0  0  0  0
    6.3393    5.9257    0.0000 C   0  0  0  0  0  0  0  0  0  0  0  0
    2.7510    5.7236    0.0000 C   0  0  1  0  0  0  0  0  0  0  0  0
    6.9229    6.7304    0.0000 C   0  0  0  0  0  0  0  0  0  0  0  0
    4.5431    4.6889    0.0000 C   0  0  0  0  0  0  0  0  0  0  0  0
    3.6451    4.1612    0.0000 C   0  0  1  0  0  0  0  0  0  0  0  0
    5.3931    8.2304    0.0000 C   0  0  0  0  0  0  0  0  0  0  0  0
    2.7430    4.6820    0.0000 C   0  0  0  0  0  0  0  0  0  0  0  0
    7.1493    8.1215    0.0000 C   0  0  0  0  0  0  0  0  0  0  0  0
    2.7587    6.7236    0.0000 C   0  0  0  0  0  0  0  0  0  0  0  0
    1.8242    6.2877    0.0000 C   0  0  0  0  0  0  0  0  0  0  0  0
    3.6489    3.1612    0.0000 C   0  0  0  0  0  0  0  0  0  0  0  0
    1.8076    4.1323    0.0000 C   0  0  0  0  0  0  0  0  0  0  0  0
    8.0622    7.7132    0.0000 C   0  0  0  0  0  0  0  0  0  0  0  0
    0.8763    5.7597    0.0000 C   0  0  0  0  0  0  0  0  0  0  0  0
    0.8679    4.6748    0.0000 C   0  0  0  0  0  0  0  0  0  0  0  0
    9.7850    7.8913    0.0000 C   0  0  0  0  0  0  0  0  0  0  0  0
   10.5951    8.4777    0.0000 C   0  0  0  0  0  0  0  0  0  0  0  0
   11.5079    8.0694    0.0000 C   0  0  0  0  0  0  0  0  0  0  0  0
   12.3180    8.6558    0.0000 C   0  0  0  0  0  0  0  0  0  0  0  0
    5.4830    5.3852    0.0000 H   0  0  0  0  0  0  0  0  0  0  0  0
    5.2664    5.3111    0.0000 H   0  0  0  0  0  0  0  0  0  0  0  0
    4.3972    6.6554    0.0000 H   0  0  0  0  0  0  0  0  0  0  0  0
    4.9256    8.2054    0.0000 H   0  0  0  0  0  0  0  0  0  0  0  0
    4.1285    8.2054    0.0000 H   0  0  0  0  0  0  0  0  0  0  0  0
    3.1241    6.9204    0.0000 H   0  0  0  0  0  0  0  0  0  0  0  0
    6.0883    5.3588    0.0000 H   0  0  0  0  0  0  0  0  0  0  0  0
    6.8767    5.6165    0.0000 H   0  0  0  0  0  0  0  0  0  0  0  0
    7.3838    6.3157    0.0000 H   0  0  0  0  0  0  0  0  0  0  0  0
    7.3838    7.1452    0.0000 H   0  0  0  0  0  0  0  0  0  0  0  0
    4.7612    4.1085    0.0000 H   0  0  0  0  0  0  0  0  0  0  0  0
    5.1523    4.8044    0.0000 H   0  0  0  0  0  0  0  0  0  0  0  0
    3.1087    3.8501    0.0000 H   0  0  0  0  0  0  0  0  0  0  0  0
    6.0131    8.2304    0.0000 H   0  0  0  0  0  0  0  0  0  0  0  0
    5.3931    8.8504    0.0000 H   0  0  0  0  0  0  0  0  0  0  0  0
    4.7731    8.2304    0.0000 H   0  0  0  0  0  0  0  0  0  0  0  0
    3.3787    6.7188    0.0000 H   0  0  0  0  0  0  0  0  0  0  0  0
    2.7635    7.3435    0.0000 H   0  0  0  0  0  0  0  0  0  0  0  0
    2.1388    6.7283    0.0000 H   0  0  0  0  0  0  0  0  0  0  0  0
    1.8361    6.9076    0.0000 H   0  0  0  0  0  0  0  0  0  0  0  0
    6.4476    8.9468    0.0000 H   0  0  0  0  0  0  0  0  0  0  0  0
    2.7950    8.3504    0.0000 H   0  0  0  0  0  0  0  0  0  0  0  0
    3.0289    3.1588    0.0000 H   0  0  0  0  0  0  0  0  0  0  0  0
    3.6513    2.5412    0.0000 H   0  0  0  0  0  0  0  0  0  0  0  0
    4.2689    3.1636    0.0000 H   0  0  0  0  0  0  0  0  0  0  0  0
    1.8100    3.5123    0.0000 H   0  0  0  0  0  0  0  0  0  0  0  0
    7.7146    7.1998    0.0000 H   0  0  0  0  0  0  0  0  0  0  0  0
    8.5074    7.2818    0.0000 H   0  0  0  0  0  0  0  0  0  0  0  0
    0.3430    6.0759    0.0000 H   0  0  0  0  0  0  0  0  0  0  0  0
   10.9427    8.9911    0.0000 H   0  0  0  0  0  0  0  0  0  0  0  0
   10.1498    8.9091    0.0000 H   0  0  0  0  0  0  0  0  0  0  0  0
   11.1603    7.5560    0.0000 H   0  0  0  0  0  0  0  0  0  0  0  0
   11.9532    7.6379    0.0000 H   0  0  0  0  0  0  0  0  0  0  0  0
   13.7330    8.6110    0.0000 H   0  0  0  0  0  0  0  0  0  0  0  0
 14  2  1  6  0  0  0
  2 56  1  0  0  0  0
 16  3  1  1  0  0  0
  3 57  1  0  0  0  0
  4 24  2  0  0  0  0
  5 29  1  0  0  0  0
  5 32  1  0  0  0  0
  6 31  2  0  0  0  0
  7 32  2  0  0  0  0
  8 35  1  0  0  0  0
  8 69  1  0  0  0  0
  9 35  2  0  0  0  0
 10 11  1  0  0  0  0
 10 14  1  0  0  0  0
 10 15  1  0  0  0  0
 10 22  1  1  0  0  0
 11 12  1  0  0  0  0
 11 17  1  0  0  0  0
 11 36  1  6  0  0  0
 12 13  1  0  0  0  0
 12 20  1  0  0  0  0
 12 37  1  1  0  0  0
 13 16  1  0  0  0  0
 13 18  1  0  0  0  0
 13 38  1  6  0  0  0
 14 19  1  0  0  0  0
 14 24  1  0  0  0  0
 15 16  1  0  0  0  0
 15 39  1  0  0  0  0
 15 40  1  0  0  0  0
 16 41  1  0  0  0  0
 17 19  1  0  0  0  0
 17 42  1  0  0  0  0
 17 43  1  0  0  0  0
 18 23  1  0  0  0  0
 18 25  1  1  0  0  0
 18 26  1  0  0  0  0
 19 44  1  0  0  0  0
 19 45  1  0  0  0  0
 20 21  1  0  0  0  0
 20 46  1  0  0  0  0
 20 47  1  0  0  0  0
 21 23  1  0  0  0  0
 21 27  1  6  0  0  0
 21 48  1  0  0  0  0
 22 49  1  0  0  0  0
 22 50  1  0  0  0  0
 22 51  1  0  0  0  0
 23 28  2  0  0  0  0
 24 29  1  0  0  0  0
 25 52  1  0  0  0  0
 25 53  1  0  0  0  0
 25 54  1  0  0  0  0
 26 30  2  0  0  0  0
 26 55  1  0  0  0  0
 27 58  1  0  0  0  0
 27 59  1  0  0  0  0
 27 60  1  0  0  0  0
 28 31  1  0  0  0  0
 28 61  1  0  0  0  0
 29 62  1  0  0  0  0
 29 63  1  0  0  0  0
 30 31  1  0  0  0  0
 30 64  1  0  0  0  0
 32 33  1  0  0  0  0
 33 34  1  0  0  0  0
 33 65  1  0  0  0  0
 33 66  1  0  0  0  0
 34 35  1  0  0  0  0
 34 67  1  0  0  0  0
 34 68  1  0  0  0  0
M  RAD  1   1   2
M  END
> <PUBCHEM_COMPOUND_CID>
9913795

> <PUBCHEM_COMPOUND_CANONICALIZED>
1

> <PUBCHEM_CACTVS_COMPLEXITY>
981

> <PUBCHEM_CACTVS_HBOND_ACCEPTOR>
8

> <PUBCHEM_CACTVS_HBOND_DONOR>
3

> <PUBCHEM_CACTVS_ROTATABLE_BOND>
7

> <PUBCHEM_CACTVS_SUBSKEYS>
AAADcfB4PCAAAAAAAAAAAAAAAAAAAYAAAAAwYIAAAAAAAGDAAAAAGgAACAAAD1SggAICCAAABgCIAqDSCAIAAAAgAAAICAFAAEgAEBIAAQQCQAAFgAAIAYPLzPDPgAAAAAAAAADAAAYAADAAAYAADAAAAA==

> <PUBCHEM_IUPAC_OPENEYE_NAME>
4-[2-[(6S,8S,9S,10R,11S,13S,14S,17R)-11,17-dihydroxy-6,10,13-trimethyl-3-oxo-7,8,9,11,12,14,15,16-octahydro-6H-cyclopenta[a]phenanthren-17-yl]-2-oxo-ethoxy]-4-oxo-butanoic acid;sodium

> <PUBCHEM_IUPAC_CAS_NAME>
4-[2-[(6S,8S,9S,10R,11S,13S,14S,17R)-11,17-dihydroxy-6,10,13-trimethyl-3-oxo-7,8,9,11,12,14,15,16-octahydro-6H-cyclopenta[a]phenanthren-17-yl]-2-oxoethoxy]-4-oxobutanoic acid;sodium

> <PUBCHEM_IUPAC_NAME_MARKUP>
4-[2-[(6<I>S</I>,8<I>S</I>,9<I>S</I>,10<I>R</I>,11<I>S</I>,13<I>S</I>,14<I>S</I>,17<I>R</I>)-11,17-dihydroxy-6,10,13-trimethyl-3-oxo-7,8,9,11,12,14,15,16-octahydro-6<I>H</I>-cyclopenta[a]phenanthren-17-yl]-2-oxoethoxy]-4-oxobutanoic acid;sodium

> <PUBCHEM_IUPAC_NAME>
4-[2-[(6S,8S,9S,10R,11S,13S,14S,17R)-11,17-dihydroxy-6,10,13-trimethyl-3-oxo-7,8,9,11,12,14,15,16-octahydro-6H-cyclopenta[a]phenanthren-17-yl]-2-oxoethoxy]-4-oxobutanoic acid;sodium

> <PUBCHEM_IUPAC_SYSTEMATIC_NAME>
4-oxidanylidene-4-[2-oxidanylidene-2-[(6S,8S,9S,10R,11S,13S,14S,17R)-6,10,13-trimethyl-11,17-bis(oxidanyl)-3-oxidanylidene-7,8,9,11,12,14,15,16-octahydro-6H-cyclopenta[a]phenanthren-17-yl]ethoxy]butanoic acid;sodium

> <PUBCHEM_IUPAC_TRADITIONAL_NAME>
4-[2-[(6S,8S,9S,10R,11S,13S,14S,17R)-11,17-dihydroxy-3-keto-6,10,13-trimethyl-7,8,9,11,12,14,15,16-octahydro-6H-cyclopenta[a]phenanthren-17-yl]-2-keto-ethoxy]-4-keto-butyric acid;sodium

> <PUBCHEM_IUPAC_INCHI>
InChI=1S/C26H34O8.Na/c1-14-10-16-17-7-9-26(33,20(29)13-34-22(32)5-4-21(30)31)25(17,3)12-19(28)23(16)24(2)8-6-15(27)11-18(14)24;/h6,8,11,14,16-17,19,23,28,33H,4-5,7,9-10,12-13H2,1-3H3,(H,30,31);/t14-,16-,17-,19-,23+,24-,25-,26-;/m0./s1

> <PUBCHEM_IUPAC_INCHIKEY>
WOARBZBOZOGFGA-SGJOWKDISA-N

> <PUBCHEM_EXACT_MASS>
497.215137

> <PUBCHEM_MOLECULAR_FORMULA>
C26H34NaO8

> <PUBCHEM_MOLECULAR_WEIGHT>
497.5

> <PUBCHEM_OPENEYE_CAN_SMILES>
CC1CC2C3CCC(C3(CC(C2C4(C1=CC(=O)C=C4)C)O)C)(C(=O)COC(=O)CCC(=O)O)O.[Na]

> <PUBCHEM_OPENEYE_ISO_SMILES>
C[C@H]1C[C@H]2[C@@H]3CC[C@@]([C@]3(C[C@@H]([C@@H]2[C@@]4(C1=CC(=O)C=C4)C)O)C)(C(=O)COC(=O)CCC(=O)O)O.[Na]

> <PUBCHEM_CACTVS_TPSA>
138

> <PUBCHEM_MONOISOTOPIC_WEIGHT>
497.215137

> <PUBCHEM_TOTAL_CHARGE>
0

> <PUBCHEM_HEAVY_ATOM_COUNT>
35

> <PUBCHEM_ATOM_DEF_STEREO_COUNT>
8

> <PUBCHEM_ATOM_UDEF_STEREO_COUNT>
0

> <PUBCHEM_BOND_DEF_STEREO_COUNT>
0

> <PUBCHEM_BOND_UDEF_STEREO_COUNT>
0

> <PUBCHEM_ISOTOPIC_ATOM_COUNT>
0

> <PUBCHEM_COMPONENT_COUNT>
2

> <PUBCHEM_CACTVS_TAUTO_COUNT>
-1

> <PUBCHEM_COORDINATE_TYPE>
1
5
255

> <PUBCHEM_BONDANNOTATIONS>
10  22  5
11  36  6
12  37  5
13  38  6
18  25  5
14  2  6
21  27  6
16  3  5

$$$$
