9916461
  -OEChem-05242006132D

 57 61  0     0  0  0  0  0  0999 V2000
    4.0276   -3.0217    0.0000 Cl  0  0  0  0  0  0  0  0  0  0  0  0
    4.5981    5.5533    0.0000 F   0  0  0  0  0  0  0  0  0  0  0  0
    3.5981    4.5533    0.0000 F   0  0  0  0  0  0  0  0  0  0  0  0
    5.5981    4.5533    0.0000 F   0  0  0  0  0  0  0  0  0  0  0  0
    2.0000    1.0533    0.0000 F   0  0  0  0  0  0  0  0  0  0  0  0
    2.3660    2.4193    0.0000 F   0  0  0  0  0  0  0  0  0  0  0  0
    3.3660    0.6873    0.0000 F   0  0  0  0  0  0  0  0  0  0  0  0
    5.4289   -2.0036    0.0000 O   0  0  0  0  0  0  0  0  0  0  0  0
    6.3301    0.5533    0.0000 N   0  0  0  0  0  0  0  0  0  0  0  0
    5.5211   -0.0345    0.0000 N   0  0  0  0  0  0  0  0  0  0  0  0
    5.8301   -0.9856    0.0000 N   0  0  0  0  0  0  0  0  0  0  0  0
    8.4124   -1.6900    0.0000 N   0  0  0  0  0  0  0  0  0  0  0  0
    9.9923    0.8926    0.0000 N   0  0  0  0  0  0  0  0  0  0  0  0
    6.3301    1.5533    0.0000 C   0  0  0  0  0  0  0  0  0  0  0  0
    7.1391   -0.0345    0.0000 C   0  0  0  0  0  0  0  0  0  0  0  0
    5.4641    2.0533    0.0000 C   0  0  0  0  0  0  0  0  0  0  0  0
    6.8301   -0.9856    0.0000 C   0  0  0  0  0  0  0  0  0  0  0  0
    4.5981    1.5533    0.0000 C   0  0  0  0  0  0  0  0  0  0  0  0
    5.4641    3.0533    0.0000 C   0  0  0  0  0  0  0  0  0  0  0  0
    8.0902    0.2745    0.0000 C   0  0  0  0  0  0  0  0  0  0  0  0
    3.7320    2.0533    0.0000 C   0  0  0  0  0  0  0  0  0  0  0  0
    4.5981    3.5533    0.0000 C   0  0  0  0  0  0  0  0  0  0  0  0
    7.4179   -1.7946    0.0000 C   0  0  0  0  0  0  0  0  0  0  0  0
    3.7320    3.0533    0.0000 C   0  0  0  0  0  0  0  0  0  0  0  0
    7.0112   -2.7081    0.0000 C   0  0  0  0  0  0  0  0  0  0  0  0
    4.5981    4.5533    0.0000 C   0  0  0  0  0  0  0  0  0  0  0  0
    2.8660    1.5533    0.0000 C   0  0  0  0  0  0  0  0  0  0  0  0
    8.2981    1.2527    0.0000 C   0  0  0  0  0  0  0  0  0  0  0  0
    8.8334   -0.3946    0.0000 C   0  0  0  0  0  0  0  0  0  0  0  0
    6.0166   -2.8126    0.0000 C   0  0  0  0  0  0  0  0  0  0  0  0
    7.5990   -3.5171    0.0000 C   0  0  0  0  0  0  0  0  0  0  0  0
    5.6099   -3.7262    0.0000 C   0  0  0  0  0  0  0  0  0  0  0  0
    8.5935   -3.4126    0.0000 C   0  0  0  0  0  0  0  0  0  0  0  0
    9.0002   -2.4991    0.0000 C   0  0  0  0  0  0  0  0  0  0  0  0
    9.2492    1.5617    0.0000 C   0  0  0  0  0  0  0  0  0  0  0  0
    9.7844   -0.0856    0.0000 C   0  0  0  0  0  0  0  0  0  0  0  0
    4.6154   -3.8307    0.0000 C   0  0  0  0  0  0  0  0  0  0  0  0
    6.1977   -4.5352    0.0000 C   0  0  0  0  0  0  0  0  0  0  0  0
    4.2087   -4.7443    0.0000 C   0  0  0  0  0  0  0  0  0  0  0  0
    5.7910   -5.4488    0.0000 C   0  0  0  0  0  0  0  0  0  0  0  0
    4.7964   -5.5533    0.0000 C   0  0  0  0  0  0  0  0  0  0  0  0
    6.9407    1.4456    0.0000 H   0  0  0  0  0  0  0  0  0  0  0  0
    6.5422    2.1359    0.0000 H   0  0  0  0  0  0  0  0  0  0  0  0
    4.5981    0.9333    0.0000 H   0  0  0  0  0  0  0  0  0  0  0  0
    6.0010    3.3633    0.0000 H   0  0  0  0  0  0  0  0  0  0  0  0
    3.1951    3.3633    0.0000 H   0  0  0  0  0  0  0  0  0  0  0  0
    7.8374    1.6675    0.0000 H   0  0  0  0  0  0  0  0  0  0  0  0
    8.7044   -1.0011    0.0000 H   0  0  0  0  0  0  0  0  0  0  0  0
    7.3468   -4.0835    0.0000 H   0  0  0  0  0  0  0  0  0  0  0  0
    8.9579   -3.9142    0.0000 H   0  0  0  0  0  0  0  0  0  0  0  0
    9.6168   -2.4343    0.0000 H   0  0  0  0  0  0  0  0  0  0  0  0
    9.3781    2.1681    0.0000 H   0  0  0  0  0  0  0  0  0  0  0  0
   10.2452   -0.5005    0.0000 H   0  0  0  0  0  0  0  0  0  0  0  0
    6.8143   -4.4704    0.0000 H   0  0  0  0  0  0  0  0  0  0  0  0
    3.5921   -4.8091    0.0000 H   0  0  0  0  0  0  0  0  0  0  0  0
    6.1554   -5.9504    0.0000 H   0  0  0  0  0  0  0  0  0  0  0  0
    4.5443   -6.1197    0.0000 H   0  0  0  0  0  0  0  0  0  0  0  0
  1 37  1  0  0  0  0
  2 26  1  0  0  0  0
  3 26  1  0  0  0  0
  4 26  1  0  0  0  0
  5 27  1  0  0  0  0
  6 27  1  0  0  0  0
  7 27  1  0  0  0  0
  8 30  2  0  0  0  0
  9 10  1  0  0  0  0
  9 14  1  0  0  0  0
  9 15  1  0  0  0  0
 10 11  2  0  0  0  0
 11 17  1  0  0  0  0
 12 23  1  0  0  0  0
 12 34  2  0  0  0  0
 13 35  2  0  0  0  0
 13 36  1  0  0  0  0
 14 16  1  0  0  0  0
 14 42  1  0  0  0  0
 14 43  1  0  0  0  0
 15 17  2  0  0  0  0
 15 20  1  0  0  0  0
 16 18  2  0  0  0  0
 16 19  1  0  0  0  0
 17 23  1  0  0  0  0
 18 21  1  0  0  0  0
 18 44  1  0  0  0  0
 19 22  2  0  0  0  0
 19 45  1  0  0  0  0
 20 28  2  0  0  0  0
 20 29  1  0  0  0  0
 21 24  2  0  0  0  0
 21 27  1  0  0  0  0
 22 24  1  0  0  0  0
 22 26  1  0  0  0  0
 23 25  2  0  0  0  0
 24 46  1  0  0  0  0
 25 30  1  0  0  0  0
 25 31  1  0  0  0  0
 28 35  1  0  0  0  0
 28 47  1  0  0  0  0
 29 36  2  0  0  0  0
 29 48  1  0  0  0  0
 30 32  1  0  0  0  0
 31 33  2  0  0  0  0
 31 49  1  0  0  0  0
 32 37  1  0  0  0  0
 32 38  2  0  0  0  0
 33 34  1  0  0  0  0
 33 50  1  0  0  0  0
 34 51  1  0  0  0  0
 35 52  1  0  0  0  0
 36 53  1  0  0  0  0
 37 39  2  0  0  0  0
 38 40  1  0  0  0  0
 38 54  1  0  0  0  0
 39 41  1  0  0  0  0
 39 55  1  0  0  0  0
 40 41  2  0  0  0  0
 40 56  1  0  0  0  0
 41 57  1  0  0  0  0
M  END
> <PUBCHEM_COMPOUND_CID>
9916461

> <PUBCHEM_COMPOUND_CANONICALIZED>
1

> <PUBCHEM_CACTVS_COMPLEXITY>
865

> <PUBCHEM_CACTVS_HBOND_ACCEPTOR>
11

> <PUBCHEM_CACTVS_HBOND_DONOR>
0

> <PUBCHEM_CACTVS_ROTATABLE_BOND>
6

> <PUBCHEM_CACTVS_SUBSKEYS>
AAADceB7ocAEAAAAAAAAAAAAAAAAAWAAAAA8eIEAAAAAAAAB/AAAHwIIAAAADA7BnjQ8gJIIEACqA7R3RACChCQ1lyAY2CE4dtgIYPrB15GUIYhggADIzcccicCeAAACAAABAAAAAAQAAAIAAAAAAAAAAA==

> <PUBCHEM_IUPAC_OPENEYE_NAME>
[2-[1-[[3,5-bis(trifluoromethyl)phenyl]methyl]-5-(4-pyridyl)triazol-4-yl]-3-pyridyl]-(2-chlorophenyl)methanone

> <PUBCHEM_IUPAC_CAS_NAME>
[2-[1-[[3,5-bis(trifluoromethyl)phenyl]methyl]-5-pyridin-4-yl-4-triazolyl]-3-pyridinyl]-(2-chlorophenyl)methanone

> <PUBCHEM_IUPAC_NAME_MARKUP>
[2-[1-[[3,5-bis(trifluoromethyl)phenyl]methyl]-5-pyridin-4-yltriazol-4-yl]pyridin-3-yl]-(2-chlorophenyl)methanone

> <PUBCHEM_IUPAC_NAME>
[2-[1-[[3,5-bis(trifluoromethyl)phenyl]methyl]-5-pyridin-4-yltriazol-4-yl]pyridin-3-yl]-(2-chlorophenyl)methanone

> <PUBCHEM_IUPAC_SYSTEMATIC_NAME>
[2-[1-[[3,5-bis(trifluoromethyl)phenyl]methyl]-5-pyridin-4-yl-1,2,3-triazol-4-yl]pyridin-3-yl]-(2-chlorophenyl)methanone

> <PUBCHEM_IUPAC_TRADITIONAL_NAME>
[2-[1-[3,5-bis(trifluoromethyl)benzyl]-5-(4-pyridyl)triazol-4-yl]-3-pyridyl]-(2-chlorophenyl)methanone

> <PUBCHEM_IUPAC_INCHI>
InChI=1S/C28H16ClF6N5O/c29-22-6-2-1-4-20(22)26(41)21-5-3-9-37-23(21)24-25(17-7-10-36-11-8-17)40(39-38-24)15-16-12-18(27(30,31)32)14-19(13-16)28(33,34)35/h1-14H,15H2

> <PUBCHEM_IUPAC_INCHIKEY>
CAVRKWRKTNINFF-UHFFFAOYSA-N

> <PUBCHEM_XLOGP3_AA>
6.2

> <PUBCHEM_EXACT_MASS>
587.094757

> <PUBCHEM_MOLECULAR_FORMULA>
C28H16ClF6N5O

> <PUBCHEM_MOLECULAR_WEIGHT>
587.9

> <PUBCHEM_OPENEYE_CAN_SMILES>
C1=CC=C(C(=C1)C(=O)C2=C(N=CC=C2)C3=C(N(N=N3)CC4=CC(=CC(=C4)C(F)(F)F)C(F)(F)F)C5=CC=NC=C5)Cl

> <PUBCHEM_OPENEYE_ISO_SMILES>
C1=CC=C(C(=C1)C(=O)C2=C(N=CC=C2)C3=C(N(N=N3)CC4=CC(=CC(=C4)C(F)(F)F)C(F)(F)F)C5=CC=NC=C5)Cl

> <PUBCHEM_CACTVS_TPSA>
73.6

> <PUBCHEM_MONOISOTOPIC_WEIGHT>
587.094757

> <PUBCHEM_TOTAL_CHARGE>
0

> <PUBCHEM_HEAVY_ATOM_COUNT>
41

> <PUBCHEM_ATOM_DEF_STEREO_COUNT>
0

> <PUBCHEM_ATOM_UDEF_STEREO_COUNT>
0

> <PUBCHEM_BOND_DEF_STEREO_COUNT>
0

> <PUBCHEM_BOND_UDEF_STEREO_COUNT>
0

> <PUBCHEM_ISOTOPIC_ATOM_COUNT>
0

> <PUBCHEM_COMPONENT_COUNT>
1

> <PUBCHEM_CACTVS_TAUTO_COUNT>
-1

> <PUBCHEM_COORDINATE_TYPE>
1
5
255

> <PUBCHEM_BONDANNOTATIONS>
10  11  8
11  17  8
12  23  8
12  34  8
13  35  8
13  36  8
15  17  8
16  18  8
16  19  8
18  21  8
19  22  8
20  28  8
20  29  8
21  24  8
22  24  8
23  25  8
25  31  8
28  35  8
29  36  8
31  33  8
32  37  8
32  38  8
33  34  8
37  39  8
38  40  8
39  41  8
40  41  8
9  10  8
9  15  8

$$$$
