9962077
  -OEChem-05242006132D

 72 75  0     1  0  0  0  0  0999 V2000
    6.1053    3.9999    0.0000 S   0  0  0  0  0  0  0  0  0  0  0  0
    4.3733    5.9999    0.0000 S   0  0  0  0  0  0  0  0  0  0  0  0
    2.5937    5.9066    0.0000 S   0  0  0  0  0  0  0  0  0  0  0  0
   12.9395    3.5043    0.0000 S   0  0  0  0  0  0  0  0  0  0  0  0
   14.3010    5.0882    0.0000 P   0  0  0  0  0  0  0  0  0  0  0  0
    8.6853    6.2126    0.0000 O   0  0  0  0  0  0  0  0  0  0  0  0
    5.2393    7.4999    0.0000 O   0  5  0  0  0  0  0  0  0  0  0  0
    6.9714    7.4999    0.0000 O   0  0  0  0  0  0  0  0  0  0  0  0
    9.9126    5.0094    0.0000 O   0  0  0  0  0  0  0  0  0  0  0  0
    9.1302    2.1133    0.0000 O   0  0  0  0  0  0  0  0  0  0  0  0
   15.2883    4.9297    0.0000 O   0  0  0  0  0  0  0  0  0  0  0  0
   14.4594    6.0755    0.0000 O   0  0  0  0  0  0  0  0  0  0  0  0
   14.1425    4.1008    0.0000 O   0  0  0  0  0  0  0  0  0  0  0  0
    8.7058   11.0009    0.0000 O   0  0  0  0  0  0  0  0  0  0  0  0
    7.8398    9.5009    0.0000 O   0  0  0  0  0  0  0  0  0  0  0  0
    6.9714    5.4999    0.0000 N   0  0  0  0  0  0  0  0  0  0  0  0
    8.6853    3.7872    0.0000 N   0  0  0  0  0  0  0  0  0  0  0  0
   10.0966    2.3701    0.0000 N   0  0  0  0  0  0  0  0  0  0  0  0
    3.4028    4.5054    0.0000 N   0  0  0  0  0  0  0  0  0  0  0  0
   11.6842    4.5252    0.0000 N   0  0  0  0  0  0  0  0  0  0  0  0
   12.0997    2.9614    0.0000 N   0  0  0  0  0  0  0  0  0  0  0  0
    1.2044    1.5568    0.0000 N   0  3  0  0  0  0  0  0  0  0  0  0
   13.3136    5.2466    0.0000 N   0  0  0  0  0  0  0  0  0  0  0  0
    6.9714    4.4999    0.0000 C   0  0  1  0  0  0  0  0  0  0  0  0
    7.9797    4.4958    0.0000 C   0  0  1  0  0  0  0  0  0  0  0  0
    7.9797    5.5040    0.0000 C   0  0  0  0  0  0  0  0  0  0  0  0
    6.1053    5.9999    0.0000 C   0  0  0  0  0  0  0  0  0  0  0  0
    5.2393    4.4999    0.0000 C   0  0  0  0  0  0  0  0  0  0  0  0
    5.2393    5.4999    0.0000 C   0  0  0  0  0  0  0  0  0  0  0  0
    6.1053    6.9999    0.0000 C   0  0  0  0  0  0  0  0  0  0  0  0
    9.6518    4.0440    0.0000 C   0  0  0  0  0  0  0  0  0  0  0  0
   10.3574    3.3355    0.0000 C   0  0  0  0  0  0  0  0  0  0  0  0
    3.5073    5.4999    0.0000 C   0  0  0  0  0  0  0  0  0  0  0  0
   11.3239    3.5923    0.0000 C   0  0  0  0  0  0  0  0  0  0  0  0
    2.4246    4.2975    0.0000 C   0  0  0  0  0  0  0  0  0  0  0  0
    1.9246    5.1635    0.0000 C   0  0  0  0  0  0  0  0  0  0  0  0
    2.0179    3.3839    0.0000 C   0  0  0  0  0  0  0  0  0  0  0  0
   12.6827    4.4708    0.0000 C   0  0  0  0  0  0  0  0  0  0  0  0
    2.6056    2.5749    0.0000 C   0  0  0  0  0  0  0  0  0  0  0  0
    1.0233    3.2794    0.0000 C   0  0  0  0  0  0  0  0  0  0  0  0
    8.8694    1.1479    0.0000 C   0  0  0  0  0  0  0  0  0  0  0  0
    2.1989    1.6614    0.0000 C   0  0  0  0  0  0  0  0  0  0  0  0
    0.6166    2.3659    0.0000 C   0  0  0  0  0  0  0  0  0  0  0  0
    9.5750    0.4393    0.0000 C   0  0  0  0  0  0  0  0  0  0  0  0
    0.7977    0.6433    0.0000 C   0  0  0  0  0  0  0  0  0  0  0  0
    6.9737   11.0009    0.0000 C   0  0  0  0  0  0  0  0  0  0  0  0
    7.8398   10.5009    0.0000 C   0  0  0  0  0  0  0  0  0  0  0  0
    7.1897    3.6784    0.0000 H   0  0  0  0  0  0  0  0  0  0  0  0
    8.5527    4.7324    0.0000 H   0  0  0  0  0  0  0  0  0  0  0  0
    8.5236    3.1887    0.0000 H   0  0  0  0  0  0  0  0  0  0  0  0
    4.6288    4.6076    0.0000 H   0  0  0  0  0  0  0  0  0  0  0  0
    5.0273    3.9173    0.0000 H   0  0  0  0  0  0  0  0  0  0  0  0
    1.3080    5.2283    0.0000 H   0  0  0  0  0  0  0  0  0  0  0  0
    3.2222    2.6397    0.0000 H   0  0  0  0  0  0  0  0  0  0  0  0
    0.6589    3.7810    0.0000 H   0  0  0  0  0  0  0  0  0  0  0  0
    8.3080    1.4110    0.0000 H   0  0  0  0  0  0  0  0  0  0  0  0
    8.5127    0.6407    0.0000 H   0  0  0  0  0  0  0  0  0  0  0  0
    2.5633    1.1598    0.0000 H   0  0  0  0  0  0  0  0  0  0  0  0
    0.0000    2.3010    0.0000 H   0  0  0  0  0  0  0  0  0  0  0  0
   13.0926    5.8259    0.0000 H   0  0  0  0  0  0  0  0  0  0  0  0
    9.1357    0.0018    0.0000 H   0  0  0  0  0  0  0  0  0  0  0  0
   10.0125    0.0000    0.0000 H   0  0  0  0  0  0  0  0  0  0  0  0
   10.0143    0.8768    0.0000 H   0  0  0  0  0  0  0  0  0  0  0  0
    0.2313    0.8955    0.0000 H   0  0  0  0  0  0  0  0  0  0  0  0
    0.5455    0.0769    0.0000 H   0  0  0  0  0  0  0  0  0  0  0  0
    1.3640    0.3911    0.0000 H   0  0  0  0  0  0  0  0  0  0  0  0
   15.6795    5.4107    0.0000 H   0  0  0  0  0  0  0  0  0  0  0  0
   15.0387    6.2965    0.0000 H   0  0  0  0  0  0  0  0  0  0  0  0
    7.2837   11.5378    0.0000 H   0  0  0  0  0  0  0  0  0  0  0  0
    6.4368   11.3109    0.0000 H   0  0  0  0  0  0  0  0  0  0  0  0
    6.6637   10.4640    0.0000 H   0  0  0  0  0  0  0  0  0  0  0  0
    9.2427   10.6909    0.0000 H   0  0  0  0  0  0  0  0  0  0  0  0
  1 24  1  0  0  0  0
  1 28  1  0  0  0  0
  2 29  1  0  0  0  0
  2 33  1  0  0  0  0
  3 33  1  0  0  0  0
  3 36  1  0  0  0  0
  4 21  1  0  0  0  0
  4 38  1  0  0  0  0
  5 11  1  0  0  0  0
  5 12  1  0  0  0  0
  5 13  2  0  0  0  0
  5 23  1  0  0  0  0
  6 26  2  0  0  0  0
  7 30  1  0  0  0  0
  8 30  2  0  0  0  0
  9 31  2  0  0  0  0
 10 18  1  0  0  0  0
 10 41  1  0  0  0  0
 11 67  1  0  0  0  0
 12 68  1  0  0  0  0
 14 47  1  0  0  0  0
 14 72  1  0  0  0  0
 15 47  2  0  0  0  0
 16 24  1  0  0  0  0
 16 26  1  0  0  0  0
 16 27  1  0  0  0  0
 25 17  1  1  0  0  0
 17 31  1  0  0  0  0
 17 50  1  0  0  0  0
 18 32  2  0  0  0  0
 19 33  2  0  0  0  0
 19 35  1  0  0  0  0
 20 34  1  0  0  0  0
 20 38  2  0  0  0  0
 21 34  2  0  0  0  0
 22 42  2  0  0  0  0
 22 43  1  0  0  0  0
 22 45  1  0  0  0  0
 23 38  1  0  0  0  0
 23 60  1  0  0  0  0
 24 25  1  0  0  0  0
 24 48  1  6  0  0  0
 25 26  1  0  0  0  0
 25 49  1  0  0  0  0
 27 29  2  0  0  0  0
 27 30  1  0  0  0  0
 28 29  1  0  0  0  0
 28 51  1  0  0  0  0
 28 52  1  0  0  0  0
 31 32  1  0  0  0  0
 32 34  1  0  0  0  0
 35 36  2  0  0  0  0
 35 37  1  0  0  0  0
 36 53  1  0  0  0  0
 37 39  2  0  0  0  0
 37 40  1  0  0  0  0
 39 42  1  0  0  0  0
 39 54  1  0  0  0  0
 40 43  2  0  0  0  0
 40 55  1  0  0  0  0
 41 44  1  0  0  0  0
 41 56  1  0  0  0  0
 41 57  1  0  0  0  0
 42 58  1  0  0  0  0
 43 59  1  0  0  0  0
 44 61  1  0  0  0  0
 44 62  1  0  0  0  0
 44 63  1  0  0  0  0
 45 64  1  0  0  0  0
 45 65  1  0  0  0  0
 45 66  1  0  0  0  0
 46 47  1  0  0  0  0
 46 69  1  0  0  0  0
 46 70  1  0  0  0  0
 46 71  1  0  0  0  0
M  CHG  2   7  -1  22   1
M  END
> <PUBCHEM_COMPOUND_CID>
9962077

> <PUBCHEM_COMPOUND_CANONICALIZED>
1

> <PUBCHEM_CACTVS_COMPLEXITY>
1240

> <PUBCHEM_CACTVS_HBOND_ACCEPTOR>
19

> <PUBCHEM_CACTVS_HBOND_DONOR>
5

> <PUBCHEM_CACTVS_ROTATABLE_BOND>
10

> <PUBCHEM_CACTVS_SUBSKEYS>
AAADceB7/AJwAAAAAAAAAAAAAABYAWLAAAAsQAAAAAAQAAAB+AAAHgQUyCAADCjl3wa/mZfcEhisQzf3fICC8alxCrkJ2LW4ZNiKbOrg0bGUMAhglgL4yQYQAAAKAAAAAAAAAAAAAAAAAAAAAAAAAAAAAA==

> <PUBCHEM_IUPAC_OPENEYE_NAME>
acetic acid;(6R,7R)-7-[[(2Z)-2-ethoxyimino-2-[5-(phosphonoamino)-1,2,4-thiadiazol-3-yl]acetyl]amino]-3-[4-(1-methylpyridin-1-ium-4-yl)thiazol-2-yl]sulfanyl-8-oxo-5-thia-1-azabicyclo[4.2.0]oct-2-ene-2-carboxylate

> <PUBCHEM_IUPAC_CAS_NAME>
acetic acid;(6R,7R)-7-[[(2Z)-2-ethoxyimino-1-oxo-2-[5-(phosphonoamino)-1,2,4-thiadiazol-3-yl]ethyl]amino]-3-[[4-(1-methyl-4-pyridin-1-iumyl)-2-thiazolyl]thio]-8-oxo-5-thia-1-azabicyclo[4.2.0]oct-2-ene-2-carboxylate

> <PUBCHEM_IUPAC_NAME_MARKUP>
acetic acid;(6<I>R</I>,7<I>R</I>)-7-[[(2<I>Z</I>)-2-ethoxyimino-2-[5-(phosphonoamino)-1,2,4-thiadiazol-3-yl]acetyl]amino]-3-[[4-(1-methylpyridin-1-ium-4-yl)-1,3-thiazol-2-yl]sulfanyl]-8-oxo-5-thia-1-azabicyclo[4.2.0]oct-2-ene-2-carboxylate

> <PUBCHEM_IUPAC_NAME>
acetic acid;(6R,7R)-7-[[(2Z)-2-ethoxyimino-2-[5-(phosphonoamino)-1,2,4-thiadiazol-3-yl]acetyl]amino]-3-[[4-(1-methylpyridin-1-ium-4-yl)-1,3-thiazol-2-yl]sulfanyl]-8-oxo-5-thia-1-azabicyclo[4.2.0]oct-2-ene-2-carboxylate

> <PUBCHEM_IUPAC_SYSTEMATIC_NAME>
ethanoic acid;(6R,7R)-7-[[(2Z)-2-ethoxyimino-2-[5-(phosphonoamino)-1,2,4-thiadiazol-3-yl]ethanoyl]amino]-3-[[4-(1-methylpyridin-1-ium-4-yl)-1,3-thiazol-2-yl]sulfanyl]-8-oxidanylidene-5-thia-1-azabicyclo[4.2.0]oct-2-ene-2-carboxylate

> <PUBCHEM_IUPAC_TRADITIONAL_NAME>
acetic acid;(6R,7R)-7-[[(2Z)-2-ethyloximino-2-[5-(phosphonoamino)-1,2,4-thiadiazol-3-yl]acetyl]amino]-8-keto-3-[[4-(1-methylpyridin-1-ium-4-yl)thiazol-2-yl]thio]-5-thia-1-azabicyclo[4.2.0]oct-2-ene-2-carboxylate

> <PUBCHEM_IUPAC_INCHI>
InChI=1S/C22H21N8O8PS4.C2H4O2/c1-3-38-26-13(16-25-21(43-28-16)27-39(35,36)37)17(31)24-14-18(32)30-15(20(33)34)12(9-40-19(14)30)42-22-23-11(8-41-22)10-4-6-29(2)7-5-10;1-2(3)4/h4-8,14,19H,3,9H2,1-2H3,(H4-,24,25,27,28,31,33,34,35,36,37);1H3,(H,3,4)/b26-13-;/t14-,19-;/m1./s1

> <PUBCHEM_IUPAC_INCHIKEY>
UGHHNQFYEVOFIV-VRDMTWHKSA-N

> <PUBCHEM_EXACT_MASS>
744.031411

> <PUBCHEM_MOLECULAR_FORMULA>
C24H25N8O10PS4

> <PUBCHEM_MOLECULAR_WEIGHT>
744.7

> <PUBCHEM_OPENEYE_CAN_SMILES>
CCON=C(C1=NSC(=N1)NP(=O)(O)O)C(=O)NC2C3N(C2=O)C(=C(CS3)SC4=NC(=CS4)C5=CC=[N+](C=C5)C)C(=O)[O-].CC(=O)O

> <PUBCHEM_OPENEYE_ISO_SMILES>
CCO/N=C(/C1=NSC(=N1)NP(=O)(O)O)\C(=O)N[C@H]2[C@@H]3N(C2=O)C(=C(CS3)SC4=NC(=CS4)C5=CC=[N+](C=C5)C)C(=O)[O-].CC(=O)O

> <PUBCHEM_CACTVS_TPSA>
368

> <PUBCHEM_MONOISOTOPIC_WEIGHT>
744.031411

> <PUBCHEM_TOTAL_CHARGE>
0

> <PUBCHEM_HEAVY_ATOM_COUNT>
47

> <PUBCHEM_ATOM_DEF_STEREO_COUNT>
2

> <PUBCHEM_ATOM_UDEF_STEREO_COUNT>
0

> <PUBCHEM_BOND_DEF_STEREO_COUNT>
1

> <PUBCHEM_BOND_UDEF_STEREO_COUNT>
0

> <PUBCHEM_ISOTOPIC_ATOM_COUNT>
0

> <PUBCHEM_COMPONENT_COUNT>
2

> <PUBCHEM_CACTVS_TAUTO_COUNT>
-1

> <PUBCHEM_COORDINATE_TYPE>
1
5
255

> <PUBCHEM_BONDANNOTATIONS>
25  17  5
19  33  8
19  35  8
20  34  8
20  38  8
21  34  8
22  42  8
22  43  8
24  48  6
3  33  8
3  36  8
35  36  8
37  39  8
37  40  8
39  42  8
4  21  8
4  38  8
40  43  8

$$$$
